MODEL 1
REMARK VINA RESULT:    -8.412      0.000      0.000
REMARK INTER + INTRA:         -12.775
REMARK INTER:                 -11.761
REMARK INTRA:                  -1.015
REMARK UNBOUND:                -0.921
REMARK SMILES CNC(=O)Cn1c(=O)[nH]/c(=N\c2ccc(OC(F)F)cc2C)n(Cc2cc(F)c(F)c(F)c2)c1=O
REMARK SMILES IDX 12 1 13 2 14 3 15 4 20 5 21 6 22 7 11 8 8 9 7 10 9 11 6 12
REMARK SMILES IDX 10 13 34 15 23 16 35 17 5 18 3 19 2 20 4 21 1 22 24 24 25 25
REMARK SMILES IDX 26 26 33 27 27 28 31 29 28 30 29 31 32 32 30 33 16 34 17 35
REMARK SMILES IDX 18 36 19 37
REMARK H PARENT 9 14 2 23
REMARK Flexibility Score: inf
ROOT
ATOM      1  C   UNL     1     -21.575  16.800 -26.549  1.00  0.00     0.070 A 
ATOM      2  C   UNL     1     -22.586  15.966 -26.154  1.00  0.00     0.032 A 
ATOM      3  C   UNL     1     -22.712  14.701 -26.745  1.00  0.00     0.049 A 
ATOM      4  C   UNL     1     -21.847  14.284 -27.704  1.00  0.00     0.126 A 
ATOM      5  C   UNL     1     -20.815  15.154 -28.097  1.00  0.00     0.052 A 
ATOM      6  C   UNL     1     -20.703  16.370 -27.521  1.00  0.00    -0.022 A 
ATOM      7  C   UNL     1     -19.588  17.245 -27.980  1.00  0.00     0.047 C 
ENDROOT
BRANCH   1   8
ATOM      8  N   UNL     1     -21.376  18.097 -26.002  1.00  0.00    -0.214 NA
ATOM      9  O   UNL     1     -20.848  16.286 -21.916  1.00  0.00    -0.248 OA
ATOM     10  C   UNL     1     -20.890  17.294 -22.660  1.00  0.00     0.332 A 
ATOM     11  N   UNL     1     -21.116  17.172 -23.981  1.00  0.00    -0.277 N 
ATOM     12  N   UNL     1     -20.702  18.489 -22.103  1.00  0.00    -0.236 N 
ATOM     13  C   UNL     1     -21.151  18.284 -24.746  1.00  0.00     0.215 A 
ATOM     14  H   UNL     1     -21.265  16.217 -24.416  1.00  0.00     0.175 HD
ATOM     15  C   UNL     1     -20.745  19.574 -22.903  1.00  0.00     0.335 A 
ATOM     16  N   UNL     1     -20.967  19.527 -24.229  1.00  0.00    -0.259 N 
ATOM     17  O   UNL     1     -20.569  20.718 -22.386  1.00  0.00    -0.247 OA
BRANCH  12  18
ATOM     18  C   UNL     1     -20.454  18.696 -20.696  1.00  0.00     0.232 C 
BRANCH  18  19
ATOM     19  C   UNL     1     -21.692  18.822 -19.913  1.00  0.00     0.240 C 
ATOM     20  N   UNL     1     -22.603  17.763 -19.771  1.00  0.00    -0.358 N 
ATOM     21  O   UNL     1     -21.940  19.919 -19.353  1.00  0.00    -0.273 OA
ATOM     22  C   UNL     1     -23.830  17.837 -19.015  1.00  0.00     0.142 C 
ATOM     23  H   UNL     1     -22.350  16.855 -20.264  1.00  0.00     0.163 HD
ENDBRANCH  18  19
ENDBRANCH  12  18
BRANCH  16  24
ATOM     24  C   UNL     1     -21.009  20.699 -25.063  1.00  0.00     0.166 C 
BRANCH  24  25
ATOM     25  C   UNL     1     -19.675  21.260 -25.391  1.00  0.00    -0.022 A 
ATOM     26  C   UNL     1     -19.227  22.467 -24.898  1.00  0.00     0.048 A 
ATOM     27  C   UNL     1     -18.807  20.577 -26.222  1.00  0.00     0.048 A 
ATOM     28  C   UNL     1     -17.978  22.979 -25.212  1.00  0.00     0.162 A 
ATOM     29  C   UNL     1     -17.562  21.080 -26.539  1.00  0.00     0.162 A 
ATOM     30  F   UNL     1     -17.544  24.166 -24.724  1.00  0.00    -0.204 F 
ATOM     31  C   UNL     1     -17.124  22.287 -26.042  1.00  0.00     0.194 A 
ATOM     32  F   UNL     1     -16.725  20.377 -27.367  1.00  0.00    -0.204 F 
ATOM     33  F   UNL     1     -15.883  22.781 -26.362  1.00  0.00    -0.200 F 
ENDBRANCH  24  25
ENDBRANCH  16  24
ENDBRANCH   1   8
BRANCH   4  34
ATOM     34  O   UNL     1     -21.920  13.065 -28.315  1.00  0.00    -0.435 OA
BRANCH  34  35
ATOM     35  C   UNL     1     -22.334  12.835 -29.610  1.00  0.00     0.542 C 
ATOM     36  F   UNL     1     -23.325  13.725 -30.027  1.00  0.00    -0.167 F 
ATOM     37  F   UNL     1     -22.886  11.539 -29.638  1.00  0.00    -0.167 F 
ENDBRANCH  34  35
ENDBRANCH   4  34
TORSDOF 7
ENDMDL
MODEL 2
REMARK VINA RESULT:    -8.401      0.710      1.558
REMARK INTER + INTRA:         -12.760
REMARK INTER:                 -11.704
REMARK INTRA:                  -1.056
REMARK UNBOUND:                -0.921
REMARK SMILES CNC(=O)Cn1c(=O)[nH]/c(=N\c2ccc(OC(F)F)cc2C)n(Cc2cc(F)c(F)c(F)c2)c1=O
REMARK SMILES IDX 12 1 13 2 14 3 15 4 20 5 21 6 22 7 11 8 8 9 7 10 9 11 6 12
REMARK SMILES IDX 10 13 34 15 23 16 35 17 5 18 3 19 2 20 4 21 1 22 24 24 25 25
REMARK SMILES IDX 26 26 33 27 27 28 31 29 28 30 29 31 32 32 30 33 16 34 17 35
REMARK SMILES IDX 18 36 19 37
REMARK H PARENT 9 14 2 23
REMARK Flexibility Score: inf
ROOT
ATOM      1  C   UNL     1     -21.584  16.820 -26.504  1.00  0.00     0.070 A 
ATOM      2  C   UNL     1     -22.588  15.982 -26.100  1.00  0.00     0.032 A 
ATOM      3  C   UNL     1     -22.719  14.720 -26.695  1.00  0.00     0.049 A 
ATOM      4  C   UNL     1     -21.865  14.310 -27.668  1.00  0.00     0.126 A 
ATOM      5  C   UNL     1     -20.841  15.184 -28.071  1.00  0.00     0.052 A 
ATOM      6  C   UNL     1     -20.724  16.397 -27.490  1.00  0.00    -0.022 A 
ATOM      7  C   UNL     1     -19.617  17.278 -27.960  1.00  0.00     0.047 C 
ENDROOT
BRANCH   1   8
ATOM      8  N   UNL     1     -21.382  18.115 -25.953  1.00  0.00    -0.214 NA
ATOM      9  O   UNL     1     -20.872  16.293 -21.871  1.00  0.00    -0.248 OA
ATOM     10  C   UNL     1     -20.907  17.303 -22.613  1.00  0.00     0.332 A 
ATOM     11  N   UNL     1     -21.130  17.185 -23.934  1.00  0.00    -0.277 N 
ATOM     12  N   UNL     1     -20.716  18.496 -22.052  1.00  0.00    -0.236 N 
ATOM     13  C   UNL     1     -21.159  18.299 -24.697  1.00  0.00     0.215 A 
ATOM     14  H   UNL     1     -21.282  16.232 -24.372  1.00  0.00     0.175 HD
ATOM     15  C   UNL     1     -20.753  19.583 -22.850  1.00  0.00     0.335 A 
ATOM     16  N   UNL     1     -20.971  19.540 -24.176  1.00  0.00    -0.259 N 
ATOM     17  O   UNL     1     -20.573  20.725 -22.329  1.00  0.00    -0.247 OA
BRANCH  12  18
ATOM     18  C   UNL     1     -20.471  18.698 -20.644  1.00  0.00     0.232 C 
BRANCH  18  19
ATOM     19  C   UNL     1     -21.697  19.001 -19.892  1.00  0.00     0.240 C 
ATOM     20  N   UNL     1     -22.115  20.317 -19.633  1.00  0.00    -0.358 N 
ATOM     21  O   UNL     1     -22.393  18.045 -19.467  1.00  0.00    -0.273 OA
ATOM     22  C   UNL     1     -23.308  20.665 -18.900  1.00  0.00     0.142 C 
ATOM     23  H   UNL     1     -21.493  21.091 -20.013  1.00  0.00     0.163 HD
ENDBRANCH  18  19
ENDBRANCH  12  18
BRANCH  16  24
ATOM     24  C   UNL     1     -21.006  20.714 -25.008  1.00  0.00     0.166 C 
BRANCH  24  25
ATOM     25  C   UNL     1     -19.668  21.241 -25.371  1.00  0.00    -0.022 A 
ATOM     26  C   UNL     1     -18.808  20.583 -26.224  1.00  0.00     0.048 A 
ATOM     27  C   UNL     1     -19.220  22.444 -24.859  1.00  0.00     0.048 A 
ATOM     28  C   UNL     1     -17.561  21.087 -26.557  1.00  0.00     0.162 A 
ATOM     29  C   UNL     1     -17.980  22.954 -25.186  1.00  0.00     0.162 A 
ATOM     30  F   UNL     1     -16.721  20.434 -27.396  1.00  0.00    -0.204 F 
ATOM     31  C   UNL     1     -17.128  22.288 -26.038  1.00  0.00     0.194 A 
ATOM     32  F   UNL     1     -17.565  24.150 -24.659  1.00  0.00    -0.204 F 
ATOM     33  F   UNL     1     -15.895  22.800 -26.358  1.00  0.00    -0.200 F 
ENDBRANCH  24  25
ENDBRANCH  16  24
ENDBRANCH   1   8
BRANCH   4  34
ATOM     34  O   UNL     1     -21.943  13.093 -28.284  1.00  0.00    -0.435 OA
BRANCH  34  35
ATOM     35  C   UNL     1     -22.326  12.873 -29.590  1.00  0.00     0.542 C 
ATOM     36  F   UNL     1     -23.313  13.762 -30.020  1.00  0.00    -0.167 F 
ATOM     37  F   UNL     1     -22.871  11.575 -29.642  1.00  0.00    -0.167 F 
ENDBRANCH  34  35
ENDBRANCH   4  34
TORSDOF 7
ENDMDL
MODEL 3
REMARK VINA RESULT:    -8.319      3.659      8.608
REMARK INTER + INTRA:         -12.644
REMARK INTER:                 -12.864
REMARK INTRA:                   0.220
REMARK UNBOUND:                -0.921
REMARK SMILES CNC(=O)Cn1c(=O)[nH]/c(=N\c2ccc(OC(F)F)cc2C)n(Cc2cc(F)c(F)c(F)c2)c1=O
REMARK SMILES IDX 12 1 13 2 14 3 15 4 20 5 21 6 22 7 11 8 8 9 7 10 9 11 6 12
REMARK SMILES IDX 10 13 34 15 23 16 35 17 5 18 3 19 2 20 4 21 1 22 24 24 25 25
REMARK SMILES IDX 26 26 33 27 27 28 31 29 28 30 29 31 32 32 30 33 16 34 17 35
REMARK SMILES IDX 18 36 19 37
REMARK H PARENT 9 14 2 23
REMARK Flexibility Score: inf
ROOT
ATOM      1  C   UNL     1     -19.864  19.183 -25.169  1.00  0.00     0.070 A 
ATOM      2  C   UNL     1     -18.995  19.350 -26.214  1.00  0.00     0.032 A 
ATOM      3  C   UNL     1     -18.298  20.559 -26.349  1.00  0.00     0.049 A 
ATOM      4  C   UNL     1     -18.468  21.571 -25.461  1.00  0.00     0.126 A 
ATOM      5  C   UNL     1     -19.364  21.382 -24.394  1.00  0.00     0.052 A 
ATOM      6  C   UNL     1     -20.030  20.213 -24.273  1.00  0.00    -0.022 A 
ATOM      7  C   UNL     1     -20.965  20.073 -23.121  1.00  0.00     0.047 C 
ENDROOT
BRANCH   1   8
ATOM      8  N   UNL     1     -20.609  17.990 -24.959  1.00  0.00    -0.214 NA
ATOM      9  O   UNL     1     -19.526  16.593 -29.096  1.00  0.00    -0.248 OA
ATOM     10  C   UNL     1     -20.116  16.405 -28.007  1.00  0.00     0.332 A 
ATOM     11  N   UNL     1     -20.055  17.317 -27.020  1.00  0.00    -0.277 N 
ATOM     12  N   UNL     1     -20.805  15.275 -27.857  1.00  0.00    -0.236 N 
ATOM     13  C   UNL     1     -20.705  17.074 -25.861  1.00  0.00     0.215 A 
ATOM     14  H   UNL     1     -19.505  18.214 -27.148  1.00  0.00     0.175 HD
ATOM     15  C   UNL     1     -21.439  15.073 -26.684  1.00  0.00     0.335 A 
ATOM     16  N   UNL     1     -21.422  15.939 -25.656  1.00  0.00    -0.259 N 
ATOM     17  O   UNL     1     -22.100  14.001 -26.528  1.00  0.00    -0.247 OA
BRANCH  12  18
ATOM     18  C   UNL     1     -20.914  14.254 -28.870  1.00  0.00     0.232 C 
BRANCH  18  19
ATOM     19  C   UNL     1     -22.047  14.475 -29.781  1.00  0.00     0.240 C 
ATOM     20  N   UNL     1     -22.113  15.580 -30.644  1.00  0.00    -0.358 N 
ATOM     21  O   UNL     1     -22.988  13.642 -29.783  1.00  0.00    -0.273 OA
ATOM     22  C   UNL     1     -23.201  15.841 -31.555  1.00  0.00     0.142 C 
ATOM     23  H   UNL     1     -21.293  16.257 -30.606  1.00  0.00     0.163 HD
ENDBRANCH  18  19
ENDBRANCH  12  18
BRANCH  16  24
ATOM     24  C   UNL     1     -22.108  15.701 -24.413  1.00  0.00     0.166 C 
BRANCH  24  25
ATOM     25  C   UNL     1     -21.272  15.056 -23.371  1.00  0.00    -0.022 A 
ATOM     26  C   UNL     1     -19.949  14.726 -23.569  1.00  0.00     0.048 A 
ATOM     27  C   UNL     1     -21.798  14.755 -22.129  1.00  0.00     0.048 A 
ATOM     28  C   UNL     1     -19.178  14.125 -22.587  1.00  0.00     0.162 A 
ATOM     29  C   UNL     1     -21.038  14.158 -21.145  1.00  0.00     0.162 A 
ATOM     30  F   UNL     1     -17.877  13.803 -22.789  1.00  0.00    -0.204 F 
ATOM     31  C   UNL     1     -19.716  13.831 -21.354  1.00  0.00     0.194 A 
ATOM     32  F   UNL     1     -21.591  13.871 -19.924  1.00  0.00    -0.204 F 
ATOM     33  F   UNL     1     -18.966  13.236 -20.370  1.00  0.00    -0.200 F 
ENDBRANCH  24  25
ENDBRANCH  16  24
ENDBRANCH   1   8
BRANCH   4  34
ATOM     34  O   UNL     1     -17.818  22.769 -25.541  1.00  0.00    -0.435 OA
BRANCH  34  35
ATOM     35  C   UNL     1     -16.534  22.961 -26.004  1.00  0.00     0.542 C 
ATOM     36  F   UNL     1     -16.323  22.396 -27.264  1.00  0.00    -0.167 F 
ATOM     37  F   UNL     1     -15.672  22.312 -25.098  1.00  0.00    -0.167 F 
ENDBRANCH  34  35
ENDBRANCH   4  34
TORSDOF 7
ENDMDL
MODEL 4
REMARK VINA RESULT:    -8.289      4.217      9.391
REMARK INTER + INTRA:         -12.603
REMARK INTER:                 -11.751
REMARK INTRA:                  -0.852
REMARK UNBOUND:                -0.921
REMARK SMILES CNC(=O)Cn1c(=O)[nH]/c(=N\c2ccc(OC(F)F)cc2C)n(Cc2cc(F)c(F)c(F)c2)c1=O
REMARK SMILES IDX 12 1 13 2 14 3 15 4 20 5 21 6 22 7 11 8 8 9 7 10 9 11 6 12
REMARK SMILES IDX 10 13 34 15 23 16 35 17 5 18 3 19 2 20 4 21 1 22 24 24 25 25
REMARK SMILES IDX 26 26 33 27 27 28 31 29 28 30 29 31 32 32 30 33 16 34 17 35
REMARK SMILES IDX 18 36 19 37
REMARK H PARENT 9 14 2 23
REMARK Flexibility Score: inf
ROOT
ATOM      1  C   UNL     1     -18.937  21.052 -26.242  1.00  0.00     0.070 A 
ATOM      2  C   UNL     1     -19.839  21.452 -25.294  1.00  0.00     0.032 A 
ATOM      3  C   UNL     1     -19.582  22.601 -24.533  1.00  0.00     0.049 A 
ATOM      4  C   UNL     1     -18.451  23.328 -24.718  1.00  0.00     0.126 A 
ATOM      5  C   UNL     1     -17.535  22.902 -25.696  1.00  0.00     0.052 A 
ATOM      6  C   UNL     1     -17.794  21.795 -26.424  1.00  0.00    -0.022 A 
ATOM      7  C   UNL     1     -16.784  21.395 -27.445  1.00  0.00     0.047 C 
ENDROOT
BRANCH   1   8
ATOM      8  N   UNL     1     -19.121  19.901 -27.056  1.00  0.00    -0.214 NA
ATOM      9  O   UNL     1     -21.681  22.305 -29.868  1.00  0.00    -0.248 OA
ATOM     10  C   UNL     1     -21.146  21.218 -29.548  1.00  0.00     0.332 A 
ATOM     11  N   UNL     1     -20.389  21.118 -28.440  1.00  0.00    -0.277 N 
ATOM     12  N   UNL     1     -21.349  20.166 -30.338  1.00  0.00    -0.236 N 
ATOM     13  C   UNL     1     -19.830  19.929 -28.132  1.00  0.00     0.215 A 
ATOM     14  H   UNL     1     -20.233  21.961 -27.816  1.00  0.00     0.175 HD
ATOM     15  C   UNL     1     -20.772  18.996 -29.994  1.00  0.00     0.335 A 
ATOM     16  N   UNL     1     -20.005  18.823 -28.903  1.00  0.00    -0.259 N 
ATOM     17  O   UNL     1     -20.958  17.985 -30.737  1.00  0.00    -0.247 OA
BRANCH  12  18
ATOM     18  C   UNL     1     -22.147  20.198 -31.540  1.00  0.00     0.232 C 
BRANCH  18  19
ATOM     19  C   UNL     1     -23.490  19.633 -31.347  1.00  0.00     0.240 C 
ATOM     20  N   UNL     1     -23.879  18.409 -31.915  1.00  0.00    -0.358 N 
ATOM     21  O   UNL     1     -24.316  20.270 -30.647  1.00  0.00    -0.273 OA
ATOM     22  C   UNL     1     -25.183  17.812 -31.755  1.00  0.00     0.142 C 
ATOM     23  H   UNL     1     -23.146  17.906 -32.499  1.00  0.00     0.163 HD
ENDBRANCH  18  19
ENDBRANCH  12  18
BRANCH  16  24
ATOM     24  C   UNL     1     -19.400  17.564 -28.556  1.00  0.00     0.166 C 
BRANCH  24  25
ATOM     25  C   UNL     1     -20.372  16.485 -28.255  1.00  0.00    -0.022 A 
ATOM     26  C   UNL     1     -21.400  16.632 -27.348  1.00  0.00     0.048 A 
ATOM     27  C   UNL     1     -20.286  15.260 -28.889  1.00  0.00     0.048 A 
ATOM     28  C   UNL     1     -22.302  15.616 -27.077  1.00  0.00     0.162 A 
ATOM     29  C   UNL     1     -21.181  14.243 -28.625  1.00  0.00     0.162 A 
ATOM     30  F   UNL     1     -23.310  15.768 -26.183  1.00  0.00    -0.204 F 
ATOM     31  C   UNL     1     -22.203  14.400 -27.716  1.00  0.00     0.194 A 
ATOM     32  F   UNL     1     -21.066  13.039 -29.270  1.00  0.00    -0.204 F 
ATOM     33  F   UNL     1     -23.090  13.384 -27.458  1.00  0.00    -0.200 F 
ENDBRANCH  24  25
ENDBRANCH  16  24
ENDBRANCH   1   8
BRANCH   4  34
ATOM     34  O   UNL     1     -18.146  24.454 -24.008  1.00  0.00    -0.435 OA
BRANCH  34  35
ATOM     35  C   UNL     1     -19.044  25.419 -23.602  1.00  0.00     0.542 C 
ATOM     36  F   UNL     1     -18.951  26.594 -24.350  1.00  0.00    -0.167 F 
ATOM     37  F   UNL     1     -18.723  25.738 -22.267  1.00  0.00    -0.167 F 
ENDBRANCH  34  35
ENDBRANCH   4  34
TORSDOF 7
ENDMDL
MODEL 5
REMARK VINA RESULT:    -8.222      4.220      9.472
REMARK INTER + INTRA:         -12.508
REMARK INTER:                 -11.741
REMARK INTRA:                  -0.767
REMARK UNBOUND:                -0.921
REMARK SMILES CNC(=O)Cn1c(=O)[nH]/c(=N\c2ccc(OC(F)F)cc2C)n(Cc2cc(F)c(F)c(F)c2)c1=O
REMARK SMILES IDX 12 1 13 2 14 3 15 4 20 5 21 6 22 7 11 8 8 9 7 10 9 11 6 12
REMARK SMILES IDX 10 13 34 15 23 16 35 17 5 18 3 19 2 20 4 21 1 22 24 24 25 25
REMARK SMILES IDX 26 26 33 27 27 28 31 29 28 30 29 31 32 32 30 33 16 34 17 35
REMARK SMILES IDX 18 36 19 37
REMARK H PARENT 9 14 2 23
REMARK Flexibility Score: inf
ROOT
ATOM      1  C   UNL     1     -18.939  21.065 -26.233  1.00  0.00     0.070 A 
ATOM      2  C   UNL     1     -19.844  21.456 -25.284  1.00  0.00     0.032 A 
ATOM      3  C   UNL     1     -19.597  22.605 -24.520  1.00  0.00     0.049 A 
ATOM      4  C   UNL     1     -18.471  23.341 -24.703  1.00  0.00     0.126 A 
ATOM      5  C   UNL     1     -17.552  22.925 -25.682  1.00  0.00     0.052 A 
ATOM      6  C   UNL     1     -17.801  21.817 -26.413  1.00  0.00    -0.022 A 
ATOM      7  C   UNL     1     -16.789  21.428 -27.435  1.00  0.00     0.047 C 
ENDROOT
BRANCH   1   8
ATOM      8  N   UNL     1     -19.113  19.915 -27.050  1.00  0.00    -0.214 NA
ATOM      9  O   UNL     1     -21.769  22.282 -29.806  1.00  0.00    -0.248 OA
ATOM     10  C   UNL     1     -21.206  21.204 -29.500  1.00  0.00     0.332 A 
ATOM     11  N   UNL     1     -20.429  21.114 -28.406  1.00  0.00    -0.277 N 
ATOM     12  N   UNL     1     -21.402  20.152 -30.293  1.00  0.00    -0.236 N 
ATOM     13  C   UNL     1     -19.841  19.934 -28.114  1.00  0.00     0.215 A 
ATOM     14  H   UNL     1     -20.279  21.956 -27.780  1.00  0.00     0.175 HD
ATOM     15  C   UNL     1     -20.796  18.992 -29.965  1.00  0.00     0.335 A 
ATOM     16  N   UNL     1     -20.007  18.829 -28.888  1.00  0.00    -0.259 N 
ATOM     17  O   UNL     1     -20.974  17.982 -30.711  1.00  0.00    -0.247 OA
BRANCH  12  18
ATOM     18  C   UNL     1     -22.220  20.175 -31.481  1.00  0.00     0.232 C 
BRANCH  18  19
ATOM     19  C   UNL     1     -23.533  19.544 -31.279  1.00  0.00     0.240 C 
ATOM     20  N   UNL     1     -23.903  18.355 -31.928  1.00  0.00    -0.358 N 
ATOM     21  O   UNL     1     -24.350  20.093 -30.498  1.00  0.00    -0.273 OA
ATOM     22  C   UNL     1     -25.177  17.698 -31.764  1.00  0.00     0.142 C 
ATOM     23  H   UNL     1     -23.178  17.929 -32.580  1.00  0.00     0.163 HD
ENDBRANCH  18  19
ENDBRANCH  12  18
BRANCH  16  24
ATOM     24  C   UNL     1     -19.371  17.581 -28.558  1.00  0.00     0.166 C 
BRANCH  24  25
ATOM     25  C   UNL     1     -20.317  16.468 -28.296  1.00  0.00    -0.022 A 
ATOM     26  C   UNL     1     -20.232  15.247 -28.929  1.00  0.00     0.048 A 
ATOM     27  C   UNL     1     -21.344  16.614 -27.383  1.00  0.00     0.048 A 
ATOM     28  C   UNL     1     -21.121  14.215 -28.674  1.00  0.00     0.162 A 
ATOM     29  C   UNL     1     -22.233  15.592 -27.123  1.00  0.00     0.162 A 
ATOM     30  F   UNL     1     -21.031  13.016 -29.301  1.00  0.00    -0.204 F 
ATOM     31  C   UNL     1     -22.140  14.375 -27.762  1.00  0.00     0.194 A 
ATOM     32  F   UNL     1     -23.242  15.770 -26.212  1.00  0.00    -0.204 F 
ATOM     33  F   UNL     1     -23.029  13.362 -27.499  1.00  0.00    -0.200 F 
ENDBRANCH  24  25
ENDBRANCH  16  24
ENDBRANCH   1   8
BRANCH   4  34
ATOM     34  O   UNL     1     -18.175  24.467 -23.990  1.00  0.00    -0.435 OA
BRANCH  34  35
ATOM     35  C   UNL     1     -19.074  25.442 -23.613  1.00  0.00     0.542 C 
ATOM     36  F   UNL     1     -18.925  26.625 -24.339  1.00  0.00    -0.167 F 
ATOM     37  F   UNL     1     -18.813  25.738 -22.260  1.00  0.00    -0.167 F 
ENDBRANCH  34  35
ENDBRANCH   4  34
TORSDOF 7
ENDMDL
