MODEL 1
REMARK VINA RESULT:    -8.299      0.000      0.000
REMARK INTER + INTRA:         -12.109
REMARK INTER:                 -11.253
REMARK INTRA:                  -0.856
REMARK UNBOUND:                -0.898
REMARK SMILES CNC(=O)Cn1c(=O)[nH]/c(=N\c2ccc(OC)cc2C)n(Cc2cc(F)c(F)c(F)c2)c1=O
REMARK SMILES IDX 6 1 7 2 9 3 10 4 21 5 32 6 33 7 11 8 8 9 5 11 3 12 4 13 2 14
REMARK SMILES IDX 1 15 22 17 23 18 24 19 31 20 25 21 29 22 26 23 27 24 30 25
REMARK SMILES IDX 28 26 12 27 13 28 19 29 14 30 18 31 20 32 15 33 16 34 17 35
REMARK H PARENT 9 10 2 16
REMARK Flexibility Score: inf
ROOT
ATOM      1  N   UNL     1     -21.350  20.226 -30.412  1.00  0.00    -0.236 N 
ATOM      2  C   UNL     1     -21.177  21.301 -29.623  1.00  0.00     0.332 A 
ATOM      3  N   UNL     1     -20.439  21.202 -28.503  1.00  0.00    -0.277 N 
ATOM      4  C   UNL     1     -19.852  20.025 -28.136  1.00  0.00     0.215 A 
ATOM      5  N   UNL     1     -20.020  18.942 -28.921  1.00  0.00    -0.259 N 
ATOM      6  C   UNL     1     -20.768  19.073 -30.042  1.00  0.00     0.335 A 
ATOM      7  O   UNL     1     -20.932  18.092 -30.770  1.00  0.00    -0.247 OA
ATOM      8  N   UNL     1     -19.160  19.968 -27.052  1.00  0.00    -0.214 NA
ATOM      9  O   UNL     1     -21.708  22.399 -29.941  1.00  0.00    -0.248 OA
ATOM     10  H   UNL     1     -20.272  22.004 -27.857  1.00  0.00     0.175 HD
ENDROOT
BRANCH   1  11
ATOM     11  C   UNL     1     -22.151  20.328 -31.632  1.00  0.00     0.232 C 
BRANCH  11  12
ATOM     12  C   UNL     1     -23.492  19.756 -31.446  1.00  0.00     0.240 C 
ATOM     13  O   UNL     1     -24.376  20.344 -30.778  1.00  0.00    -0.273 OA
ATOM     14  N   UNL     1     -23.799  18.504 -32.034  1.00  0.00    -0.358 N 
ATOM     15  C   UNL     1     -25.094  17.901 -31.883  1.00  0.00     0.142 C 
ATOM     16  H   UNL     1     -23.052  18.009 -32.597  1.00  0.00     0.163 HD
ENDBRANCH  11  12
ENDBRANCH   1  11
BRANCH   5  17
ATOM     17  C   UNL     1     -19.404  17.709 -28.540  1.00  0.00     0.166 C 
BRANCH  17  18
ATOM     18  C   UNL     1     -20.303  16.593 -28.254  1.00  0.00    -0.022 A 
ATOM     19  C   UNL     1     -21.350  16.698 -27.367  1.00  0.00     0.048 A 
ATOM     20  C   UNL     1     -20.108  15.387 -28.888  1.00  0.00     0.048 A 
ATOM     21  C   UNL     1     -22.201  15.648 -27.095  1.00  0.00     0.162 A 
ATOM     22  C   UNL     1     -20.947  14.332 -28.628  1.00  0.00     0.162 A 
ATOM     23  F   UNL     1     -23.236  15.781 -26.206  1.00  0.00    -0.204 F 
ATOM     24  C   UNL     1     -21.986  14.467 -27.736  1.00  0.00     0.194 A 
ATOM     25  F   UNL     1     -20.777  13.115 -29.247  1.00  0.00    -0.204 F 
ATOM     26  F   UNL     1     -22.790  13.391 -27.512  1.00  0.00    -0.200 F 
ENDBRANCH  17  18
ENDBRANCH   5  17
BRANCH   8  27
ATOM     27  C   UNL     1     -18.983  21.123 -26.203  1.00  0.00     0.070 A 
ATOM     28  C   UNL     1     -19.885  21.415 -25.200  1.00  0.00     0.032 A 
ATOM     29  C   UNL     1     -17.913  21.969 -26.366  1.00  0.00    -0.022 A 
ATOM     30  C   UNL     1     -19.708  22.524 -24.393  1.00  0.00     0.048 A 
ATOM     31  C   UNL     1     -17.743  23.075 -25.555  1.00  0.00     0.052 A 
ATOM     32  C   UNL     1     -16.949  21.636 -27.456  1.00  0.00     0.047 C 
ATOM     33  C   UNL     1     -18.637  23.381 -24.547  1.00  0.00     0.119 A 
BRANCH  33  34
ATOM     34  O   UNL     1     -18.506  24.478 -23.712  1.00  0.00    -0.497 OA
ATOM     35  C   UNL     1     -18.884  25.776 -24.042  1.00  0.00     0.278 C 
ENDBRANCH  33  34
ENDBRANCH   8  27
TORSDOF 6
ENDMDL
MODEL 2
REMARK VINA RESULT:    -8.283      3.752      5.774
REMARK INTER + INTRA:         -12.086
REMARK INTER:                 -11.387
REMARK INTRA:                  -0.699
REMARK UNBOUND:                -0.898
REMARK SMILES CNC(=O)Cn1c(=O)[nH]/c(=N\c2ccc(OC)cc2C)n(Cc2cc(F)c(F)c(F)c2)c1=O
REMARK SMILES IDX 6 1 7 2 9 3 10 4 21 5 32 6 33 7 11 8 8 9 5 11 3 12 4 13 2 14
REMARK SMILES IDX 1 15 22 17 23 18 24 19 31 20 25 21 29 22 26 23 27 24 30 25
REMARK SMILES IDX 28 26 12 27 13 28 19 29 14 30 18 31 20 32 15 33 16 34 17 35
REMARK H PARENT 9 10 2 16
REMARK Flexibility Score: inf
ROOT
ATOM      1  N   UNL     1     -21.665  16.668 -23.219  1.00  0.00    -0.236 N 
ATOM      2  C   UNL     1     -20.958  17.763 -22.888  1.00  0.00     0.332 A 
ATOM      3  N   UNL     1     -20.660  18.681 -23.825  1.00  0.00    -0.277 N 
ATOM      4  C   UNL     1     -21.060  18.532 -25.123  1.00  0.00     0.215 A 
ATOM      5  N   UNL     1     -21.770  17.438 -25.463  1.00  0.00    -0.259 N 
ATOM      6  C   UNL     1     -22.054  16.533 -24.498  1.00  0.00     0.335 A 
ATOM      7  O   UNL     1     -22.701  15.526 -24.794  1.00  0.00    -0.247 OA
ATOM      8  N   UNL     1     -20.748  19.430 -25.992  1.00  0.00    -0.214 NA
ATOM      9  O   UNL     1     -20.578  17.922 -21.697  1.00  0.00    -0.248 OA
ATOM     10  H   UNL     1     -20.116  19.547 -23.622  1.00  0.00     0.175 HD
ENDROOT
BRANCH   1  11
ATOM     11  C   UNL     1     -21.993  15.666 -22.204  1.00  0.00     0.232 C 
BRANCH  11  12
ATOM     12  C   UNL     1     -20.974  14.609 -22.142  1.00  0.00     0.240 C 
ATOM     13  O   UNL     1     -21.277  13.393 -22.180  1.00  0.00    -0.273 OA
ATOM     14  N   UNL     1     -19.608  14.969 -22.035  1.00  0.00    -0.358 N 
ATOM     15  C   UNL     1     -18.572  13.977 -21.971  1.00  0.00     0.142 C 
ATOM     16  H   UNL     1     -19.353  15.997 -22.003  1.00  0.00     0.163 HD
ENDBRANCH  11  12
ENDBRANCH   1  11
BRANCH   5  17
ATOM     17  C   UNL     1     -22.191  17.283 -26.821  1.00  0.00     0.166 C 
BRANCH  17  18
ATOM     18  C   UNL     1     -21.610  16.164 -27.559  1.00  0.00    -0.022 A 
ATOM     19  C   UNL     1     -20.252  16.017 -27.726  1.00  0.00     0.048 A 
ATOM     20  C   UNL     1     -22.438  15.215 -28.113  1.00  0.00     0.048 A 
ATOM     21  C   UNL     1     -19.698  14.963 -28.422  1.00  0.00     0.162 A 
ATOM     22  C   UNL     1     -21.902  14.159 -28.809  1.00  0.00     0.162 A 
ATOM     23  F   UNL     1     -18.341  14.842 -28.572  1.00  0.00    -0.204 F 
ATOM     24  C   UNL     1     -20.541  14.039 -28.959  1.00  0.00     0.194 A 
ATOM     25  F   UNL     1     -22.706  13.195 -29.373  1.00  0.00    -0.204 F 
ATOM     26  F   UNL     1     -20.059  12.974 -29.657  1.00  0.00    -0.200 F 
ENDBRANCH  17  18
ENDBRANCH   5  17
BRANCH   8  27
ATOM     27  C   UNL     1     -19.981  20.599 -25.634  1.00  0.00     0.070 A 
ATOM     28  C   UNL     1     -20.441  21.493 -24.689  1.00  0.00     0.032 A 
ATOM     29  C   UNL     1     -18.768  20.862 -26.224  1.00  0.00    -0.022 A 
ATOM     30  C   UNL     1     -19.699  22.610 -24.354  1.00  0.00     0.048 A 
ATOM     31  C   UNL     1     -18.032  21.982 -25.883  1.00  0.00     0.052 A 
ATOM     32  C   UNL     1     -18.287  19.884 -27.244  1.00  0.00     0.047 C 
ATOM     33  C   UNL     1     -18.480  22.884 -24.939  1.00  0.00     0.119 A 
BRANCH  33  34
ATOM     34  O   UNL     1     -17.776  24.019 -24.567  1.00  0.00    -0.497 OA
ATOM     35  C   UNL     1     -18.319  25.097 -23.875  1.00  0.00     0.278 C 
ENDBRANCH  33  34
ENDBRANCH   8  27
TORSDOF 6
ENDMDL
MODEL 3
REMARK VINA RESULT:    -8.145      0.367      1.861
REMARK INTER + INTRA:         -11.900
REMARK INTER:                 -11.122
REMARK INTRA:                  -0.778
REMARK UNBOUND:                -0.898
REMARK SMILES CNC(=O)Cn1c(=O)[nH]/c(=N\c2ccc(OC)cc2C)n(Cc2cc(F)c(F)c(F)c2)c1=O
REMARK SMILES IDX 6 1 7 2 9 3 10 4 21 5 32 6 33 7 11 8 8 9 5 11 3 12 4 13 2 14
REMARK SMILES IDX 1 15 22 17 23 18 24 19 31 20 25 21 29 22 26 23 27 24 30 25
REMARK SMILES IDX 28 26 12 27 13 28 19 29 14 30 18 31 20 32 15 33 16 34 17 35
REMARK H PARENT 9 10 2 16
REMARK Flexibility Score: inf
ROOT
ATOM      1  N   UNL     1     -21.415  20.011 -30.452  1.00  0.00    -0.236 N 
ATOM      2  C   UNL     1     -21.190  21.105 -29.705  1.00  0.00     0.332 A 
ATOM      3  N   UNL     1     -20.425  21.022 -28.601  1.00  0.00    -0.277 N 
ATOM      4  C   UNL     1     -19.862  19.841 -28.210  1.00  0.00     0.215 A 
ATOM      5  N   UNL     1     -20.081  18.738 -28.954  1.00  0.00    -0.259 N 
ATOM      6  C   UNL     1     -20.855  18.855 -30.059  1.00  0.00     0.335 A 
ATOM      7  O   UNL     1     -21.067  17.855 -30.749  1.00  0.00    -0.247 OA
ATOM      8  N   UNL     1     -19.142  19.800 -27.143  1.00  0.00    -0.214 NA
ATOM      9  O   UNL     1     -21.699  22.207 -30.045  1.00  0.00    -0.248 OA
ATOM     10  H   UNL     1     -20.219  21.840 -27.987  1.00  0.00     0.175 HD
ENDROOT
BRANCH   1  11
ATOM     11  C   UNL     1     -22.246  20.096 -31.654  1.00  0.00     0.232 C 
BRANCH  11  12
ATOM     12  C   UNL     1     -23.552  19.456 -31.451  1.00  0.00     0.240 C 
ATOM     13  O   UNL     1     -24.416  19.940 -30.681  1.00  0.00    -0.273 OA
ATOM     14  N   UNL     1     -23.851  18.256 -32.142  1.00  0.00    -0.358 N 
ATOM     15  C   UNL     1     -25.113  17.589 -31.981  1.00  0.00     0.142 C 
ATOM     16  H   UNL     1     -23.121  17.848 -32.793  1.00  0.00     0.163 HD
ENDBRANCH  11  12
ENDBRANCH   1  11
BRANCH   5  17
ATOM     17  C   UNL     1     -19.490  17.501 -28.548  1.00  0.00     0.166 C 
BRANCH  17  18
ATOM     18  C   UNL     1     -20.409  16.396 -28.283  1.00  0.00    -0.022 A 
ATOM     19  C   UNL     1     -20.281  15.168 -28.891  1.00  0.00     0.048 A 
ATOM     20  C   UNL     1     -21.444  16.575 -27.394  1.00  0.00     0.048 A 
ATOM     21  C   UNL     1     -21.145  14.123 -28.644  1.00  0.00     0.162 A 
ATOM     22  C   UNL     1     -22.313  15.543 -27.137  1.00  0.00     0.162 A 
ATOM     23  F   UNL     1     -20.993  12.910 -29.265  1.00  0.00    -0.204 F 
ATOM     24  C   UNL     1     -22.159  14.327 -27.760  1.00  0.00     0.194 A 
ATOM     25  F   UNL     1     -23.357  15.693 -26.253  1.00  0.00    -0.204 F 
ATOM     26  F   UNL     1     -23.047  13.335 -27.472  1.00  0.00    -0.200 F 
ENDBRANCH  17  18
ENDBRANCH   5  17
BRANCH   8  27
ATOM     27  C   UNL     1     -18.911  20.976 -26.339  1.00  0.00     0.070 A 
ATOM     28  C   UNL     1     -17.909  21.870 -26.654  1.00  0.00     0.032 A 
ATOM     29  C   UNL     1     -19.679  21.242 -25.232  1.00  0.00    -0.022 A 
ATOM     30  C   UNL     1     -17.694  22.993 -25.876  1.00  0.00     0.048 A 
ATOM     31  C   UNL     1     -19.459  22.368 -24.459  1.00  0.00     0.052 A 
ATOM     32  C   UNL     1     -20.758  20.263 -24.906  1.00  0.00     0.047 C 
ATOM     33  C   UNL     1     -18.460  23.272 -24.762  1.00  0.00     0.119 A 
BRANCH  33  34
ATOM     34  O   UNL     1     -18.203  24.411 -24.017  1.00  0.00    -0.497 OA
ATOM     35  C   UNL     1     -19.019  25.538 -23.985  1.00  0.00     0.278 C 
ENDBRANCH  33  34
ENDBRANCH   8  27
TORSDOF 6
ENDMDL
MODEL 4
REMARK VINA RESULT:    -7.916      3.550      6.585
REMARK INTER + INTRA:         -11.591
REMARK INTER:                 -11.168
REMARK INTRA:                  -0.423
REMARK UNBOUND:                -0.898
REMARK SMILES CNC(=O)Cn1c(=O)[nH]/c(=N\c2ccc(OC)cc2C)n(Cc2cc(F)c(F)c(F)c2)c1=O
REMARK SMILES IDX 6 1 7 2 9 3 10 4 21 5 32 6 33 7 11 8 8 9 5 11 3 12 4 13 2 14
REMARK SMILES IDX 1 15 22 17 23 18 24 19 31 20 25 21 29 22 26 23 27 24 30 25
REMARK SMILES IDX 28 26 12 27 13 28 19 29 14 30 18 31 20 32 15 33 16 34 17 35
REMARK H PARENT 9 10 2 16
REMARK Flexibility Score: inf
ROOT
ATOM      1  N   UNL     1     -19.567  20.419 -27.778  1.00  0.00    -0.236 N 
ATOM      2  C   UNL     1     -19.033  19.514 -26.939  1.00  0.00     0.332 A 
ATOM      3  N   UNL     1     -19.765  18.462 -26.530  1.00  0.00    -0.277 N 
ATOM      4  C   UNL     1     -21.053  18.282 -26.947  1.00  0.00     0.215 A 
ATOM      5  N   UNL     1     -21.596  19.184 -27.789  1.00  0.00    -0.259 N 
ATOM      6  C   UNL     1     -20.834  20.232 -28.182  1.00  0.00     0.335 A 
ATOM      7  O   UNL     1     -21.317  21.067 -28.950  1.00  0.00    -0.247 OA
ATOM      8  N   UNL     1     -21.723  17.266 -26.527  1.00  0.00    -0.214 NA
ATOM      9  O   UNL     1     -17.846  19.658 -26.541  1.00  0.00    -0.248 OA
ATOM     10  H   UNL     1     -19.399  17.731 -25.881  1.00  0.00     0.175 HD
ENDROOT
BRANCH   1  11
ATOM     11  C   UNL     1     -18.776  21.566 -28.226  1.00  0.00     0.232 C 
BRANCH  11  12
ATOM     12  C   UNL     1     -18.103  22.229 -27.101  1.00  0.00     0.240 C 
ATOM     13  O   UNL     1     -18.743  22.850 -26.219  1.00  0.00    -0.273 OA
ATOM     14  N   UNL     1     -16.691  22.171 -27.007  1.00  0.00    -0.358 N 
ATOM     15  C   UNL     1     -15.983  22.802 -25.928  1.00  0.00     0.142 C 
ATOM     16  H   UNL     1     -16.152  21.647 -27.752  1.00  0.00     0.163 HD
ENDBRANCH  11  12
ENDBRANCH   1  11
BRANCH   5  17
ATOM     17  C   UNL     1     -22.943  18.997 -28.228  1.00  0.00     0.166 C 
BRANCH  17  18
ATOM     18  C   UNL     1     -23.121  18.417 -29.557  1.00  0.00    -0.022 A 
ATOM     19  C   UNL     1     -22.620  17.180 -29.895  1.00  0.00     0.048 A 
ATOM     20  C   UNL     1     -23.811  19.121 -30.517  1.00  0.00     0.048 A 
ATOM     21  C   UNL     1     -22.785  16.629 -31.148  1.00  0.00     0.162 A 
ATOM     22  C   UNL     1     -23.985  18.586 -31.769  1.00  0.00     0.162 A 
ATOM     23  F   UNL     1     -22.276  15.394 -31.456  1.00  0.00    -0.204 F 
ATOM     24  C   UNL     1     -23.473  17.347 -32.077  1.00  0.00     0.194 A 
ATOM     25  F   UNL     1     -24.671  19.267 -32.748  1.00  0.00    -0.204 F 
ATOM     26  F   UNL     1     -23.672  16.859 -33.333  1.00  0.00    -0.200 F 
ENDBRANCH  17  18
ENDBRANCH   5  17
BRANCH   8  27
ATOM     27  C   UNL     1     -21.149  16.301 -25.619  1.00  0.00     0.070 A 
ATOM     28  C   UNL     1     -21.090  16.545 -24.263  1.00  0.00     0.032 A 
ATOM     29  C   UNL     1     -20.642  15.109 -26.076  1.00  0.00    -0.022 A 
ATOM     30  C   UNL     1     -20.538  15.615 -23.402  1.00  0.00     0.048 A 
ATOM     31  C   UNL     1     -20.092  14.183 -25.208  1.00  0.00     0.052 A 
ATOM     32  C   UNL     1     -20.715  14.863 -27.546  1.00  0.00     0.047 C 
ATOM     33  C   UNL     1     -20.026  14.414 -23.848  1.00  0.00     0.119 A 
BRANCH  33  34
ATOM     34  O   UNL     1     -19.483  13.516 -22.943  1.00  0.00    -0.497 OA
ATOM     35  C   UNL     1     -19.412  13.721 -21.568  1.00  0.00     0.278 C 
ENDBRANCH  33  34
ENDBRANCH   8  27
TORSDOF 6
ENDMDL
MODEL 5
REMARK VINA RESULT:    -7.911      4.092      8.132
REMARK INTER + INTRA:         -11.584
REMARK INTER:                 -11.258
REMARK INTRA:                  -0.326
REMARK UNBOUND:                -0.898
REMARK SMILES CNC(=O)Cn1c(=O)[nH]/c(=N\c2ccc(OC)cc2C)n(Cc2cc(F)c(F)c(F)c2)c1=O
REMARK SMILES IDX 6 1 7 2 9 3 10 4 21 5 32 6 33 7 11 8 8 9 5 11 3 12 4 13 2 14
REMARK SMILES IDX 1 15 22 17 23 18 24 19 31 20 25 21 29 22 26 23 27 24 30 25
REMARK SMILES IDX 28 26 12 27 13 28 19 29 14 30 18 31 20 32 15 33 16 34 17 35
REMARK H PARENT 9 10 2 16
REMARK Flexibility Score: inf
ROOT
ATOM      1  N   UNL     1     -21.161  17.323 -25.384  1.00  0.00    -0.236 N 
ATOM      2  C   UNL     1     -22.153  17.217 -26.285  1.00  0.00     0.332 A 
ATOM      3  N   UNL     1     -21.996  17.724 -27.522  1.00  0.00    -0.277 N 
ATOM      4  C   UNL     1     -20.842  18.353 -27.894  1.00  0.00     0.215 A 
ATOM      5  N   UNL     1     -19.842  18.463 -26.997  1.00  0.00    -0.259 N 
ATOM      6  C   UNL     1     -20.031  17.943 -25.762  1.00  0.00     0.335 A 
ATOM      7  O   UNL     1     -19.126  18.037 -24.928  1.00  0.00    -0.247 OA
ATOM      8  N   UNL     1     -20.733  18.831 -29.085  1.00  0.00    -0.214 NA
ATOM      9  O   UNL     1     -23.227  16.641 -25.965  1.00  0.00    -0.248 OA
ATOM     10  H   UNL     1     -22.732  17.668 -28.259  1.00  0.00     0.175 HD
ENDROOT
BRANCH   1  11
ATOM     11  C   UNL     1     -21.326  16.774 -24.038  1.00  0.00     0.232 C 
BRANCH  11  12
ATOM     12  C   UNL     1     -20.660  15.471 -23.902  1.00  0.00     0.240 C 
ATOM     13  O   UNL     1     -21.017  14.471 -24.569  1.00  0.00    -0.273 OA
ATOM     14  N   UNL     1     -19.584  15.335 -22.990  1.00  0.00    -0.358 N 
ATOM     15  C   UNL     1     -18.899  14.085 -22.818  1.00  0.00     0.142 C 
ATOM     16  H   UNL     1     -19.284  16.180 -22.427  1.00  0.00     0.163 HD
ENDBRANCH  11  12
ENDBRANCH   1  11
BRANCH   5  17
ATOM     17  C   UNL     1     -18.633  19.118 -27.386  1.00  0.00     0.166 C 
BRANCH  17  18
ATOM     18  C   UNL     1     -18.342  20.392 -26.731  1.00  0.00    -0.022 A 
ATOM     19  C   UNL     1     -17.110  20.999 -26.814  1.00  0.00     0.048 A 
ATOM     20  C   UNL     1     -19.326  21.019 -26.002  1.00  0.00     0.048 A 
ATOM     21  C   UNL     1     -16.831  22.201 -26.199  1.00  0.00     0.162 A 
ATOM     22  C   UNL     1     -19.064  22.216 -25.384  1.00  0.00     0.162 A 
ATOM     23  F   UNL     1     -15.594  22.783 -26.299  1.00  0.00    -0.204 F 
ATOM     24  C   UNL     1     -17.823  22.799 -25.485  1.00  0.00     0.194 A 
ATOM     25  F   UNL     1     -20.029  22.866 -24.648  1.00  0.00    -0.204 F 
ATOM     26  F   UNL     1     -17.613  23.987 -24.853  1.00  0.00    -0.200 F 
ENDBRANCH  17  18
ENDBRANCH   5  17
BRANCH   8  27
ATOM     27  C   UNL     1     -21.804  18.724 -30.047  1.00  0.00     0.070 A 
ATOM     28  C   UNL     1     -22.037  17.545 -30.725  1.00  0.00     0.032 A 
ATOM     29  C   UNL     1     -22.624  19.791 -30.321  1.00  0.00    -0.022 A 
ATOM     30  C   UNL     1     -23.065  17.452 -31.646  1.00  0.00     0.048 A 
ATOM     31  C   UNL     1     -23.650  19.690 -31.243  1.00  0.00     0.052 A 
ATOM     32  C   UNL     1     -22.355  21.057 -29.578  1.00  0.00     0.047 C 
ATOM     33  C   UNL     1     -23.896  18.517 -31.929  1.00  0.00     0.119 A 
BRANCH  33  34
ATOM     34  O   UNL     1     -24.911  18.372 -32.860  1.00  0.00    -0.497 OA
ATOM     35  C   UNL     1     -26.068  17.624 -32.662  1.00  0.00     0.278 C 
ENDBRANCH  33  34
ENDBRANCH   8  27
TORSDOF 6
ENDMDL
