MODEL 1
REMARK VINA RESULT:    -8.432      0.000      0.000
REMARK INTER + INTRA:         -11.725
REMARK INTER:                 -11.220
REMARK INTRA:                  -0.505
REMARK UNBOUND:                -0.336
REMARK SMILES CNC(=O)Cn1c(=O)[nH]/c(=N\c2ccc(OC)cc2)n(Cc2cc(F)c(F)c(F)c2)c1=O
REMARK SMILES IDX 6 1 7 2 9 3 10 4 20 5 31 6 32 7 11 8 8 9 5 11 3 12 4 13 2 14
REMARK SMILES IDX 1 15 21 17 22 18 23 19 30 20 24 21 28 22 25 23 26 24 29 25
REMARK SMILES IDX 27 26 12 27 13 28 19 29 14 30 18 31 15 32 16 33 17 34
REMARK H PARENT 9 10 2 16
REMARK Flexibility Score: inf
ROOT
ATOM      1  N   UNL     1     -21.335  19.989 -30.382  1.00  0.00    -0.236 N 
ATOM      2  C   UNL     1     -21.045  21.027 -29.623  1.00  0.00     0.332 A 
ATOM      3  N   UNL     1     -20.243  20.874 -28.558  1.00  0.00    -0.277 N 
ATOM      4  C   UNL     1     -19.730  19.678 -28.256  1.00  0.00     0.215 A 
ATOM      5  N   UNL     1     -20.006  18.593 -29.015  1.00  0.00    -0.259 N 
ATOM      6  C   UNL     1     -20.818  18.791 -30.077  1.00  0.00     0.335 A 
ATOM      7  O   UNL     1     -21.085  17.793 -30.791  1.00  0.00    -0.247 OA
ATOM      8  N   UNL     1     -18.929  19.526 -27.225  1.00  0.00    -0.215 NA
ATOM      9  O   UNL     1     -21.508  22.148 -29.880  1.00  0.00    -0.248 OA
ATOM     10  H   UNL     1     -20.039  21.722 -27.982  1.00  0.00     0.175 HD
ENDROOT
BRANCH   1  11
ATOM     11  C   UNL     1     -22.203  20.097 -31.527  1.00  0.00     0.232 C 
BRANCH  11  12
ATOM     12  C   UNL     1     -23.511  19.444 -31.331  1.00  0.00     0.240 C 
ATOM     13  O   UNL     1     -24.299  19.853 -30.427  1.00  0.00    -0.273 OA
ATOM     14  N   UNL     1     -23.948  18.335 -32.141  1.00  0.00    -0.358 N 
ATOM     15  C   UNL     1     -25.262  17.733 -31.890  1.00  0.00     0.142 C 
ATOM     16  H   UNL     1     -23.296  18.013 -32.879  1.00  0.00     0.163 HD
ENDBRANCH  11  12
ENDBRANCH   1  11
BRANCH   5  17
ATOM     17  C   UNL     1     -19.420  17.347 -28.622  1.00  0.00     0.166 C 
BRANCH  17  18
ATOM     18  C   UNL     1     -20.391  16.275 -28.345  1.00  0.00    -0.022 A 
ATOM     19  C   UNL     1     -21.390  16.434 -27.413  1.00  0.00     0.048 A 
ATOM     20  C   UNL     1     -20.327  15.060 -28.987  1.00  0.00     0.048 A 
ATOM     21  C   UNL     1     -22.287  15.390 -27.148  1.00  0.00     0.162 A 
ATOM     22  C   UNL     1     -21.191  14.030 -28.743  1.00  0.00     0.162 A 
ATOM     23  F   UNL     1     -23.263  15.558 -26.231  1.00  0.00    -0.204 F 
ATOM     24  C   UNL     1     -22.197  14.190 -27.804  1.00  0.00     0.194 A 
ATOM     25  F   UNL     1     -21.114  12.829 -29.371  1.00  0.00    -0.204 F 
ATOM     26  F   UNL     1     -23.091  13.181 -27.531  1.00  0.00    -0.200 F 
ENDBRANCH  17  18
ENDBRANCH   5  17
BRANCH   8  27
ATOM     27  C   UNL     1     -18.671  20.721 -26.488  1.00  0.00     0.067 A 
ATOM     28  C   UNL     1     -17.554  21.461 -26.796  1.00  0.00     0.032 A 
ATOM     29  C   UNL     1     -19.513  21.133 -25.489  1.00  0.00     0.032 A 
ATOM     30  C   UNL     1     -17.296  22.619 -26.091  1.00  0.00     0.048 A 
ATOM     31  C   UNL     1     -19.241  22.290 -24.798  1.00  0.00     0.048 A 
ATOM     32  C   UNL     1     -18.130  23.073 -25.069  1.00  0.00     0.119 A 
BRANCH  32  33
ATOM     33  O   UNL     1     -17.835  24.241 -24.387  1.00  0.00    -0.497 OA
ATOM     34  C   UNL     1     -18.900  25.083 -24.006  1.00  0.00     0.278 C 
ENDBRANCH  32  33
ENDBRANCH   8  27
TORSDOF 6
ENDMDL
MODEL 2
REMARK VINA RESULT:    -8.383      0.107      1.440
REMARK INTER + INTRA:         -11.660
REMARK INTER:                 -11.193
REMARK INTRA:                  -0.467
REMARK UNBOUND:                -0.336
REMARK SMILES CNC(=O)Cn1c(=O)[nH]/c(=N\c2ccc(OC)cc2)n(Cc2cc(F)c(F)c(F)c2)c1=O
REMARK SMILES IDX 6 1 7 2 9 3 10 4 20 5 31 6 32 7 11 8 8 9 5 11 3 12 4 13 2 14
REMARK SMILES IDX 1 15 21 17 22 18 23 19 30 20 24 21 28 22 25 23 26 24 29 25
REMARK SMILES IDX 27 26 12 27 13 28 19 29 14 30 18 31 15 32 16 33 17 34
REMARK H PARENT 9 10 2 16
REMARK Flexibility Score: inf
ROOT
ATOM      1  N   UNL     1     -21.329  19.913 -30.346  1.00  0.00    -0.236 N 
ATOM      2  C   UNL     1     -21.034  20.960 -29.600  1.00  0.00     0.332 A 
ATOM      3  N   UNL     1     -20.217  20.820 -28.545  1.00  0.00    -0.277 N 
ATOM      4  C   UNL     1     -19.695  19.629 -28.239  1.00  0.00     0.215 A 
ATOM      5  N   UNL     1     -19.976  18.536 -28.985  1.00  0.00    -0.259 N 
ATOM      6  C   UNL     1     -20.803  18.720 -30.037  1.00  0.00     0.335 A 
ATOM      7  O   UNL     1     -21.074  17.715 -30.739  1.00  0.00    -0.247 OA
ATOM      8  N   UNL     1     -18.879  19.491 -27.218  1.00  0.00    -0.215 NA
ATOM      9  O   UNL     1     -21.506  22.076 -29.861  1.00  0.00    -0.248 OA
ATOM     10  H   UNL     1     -20.010  21.674 -27.979  1.00  0.00     0.175 HD
ENDROOT
BRANCH   1  11
ATOM     11  C   UNL     1     -22.213  20.006 -31.481  1.00  0.00     0.232 C 
BRANCH  11  12
ATOM     12  C   UNL     1     -23.493  19.301 -31.282  1.00  0.00     0.240 C 
ATOM     13  O   UNL     1     -24.278  19.655 -30.353  1.00  0.00    -0.273 OA
ATOM     14  N   UNL     1     -23.906  18.203 -32.118  1.00  0.00    -0.358 N 
ATOM     15  C   UNL     1     -25.192  17.546 -31.863  1.00  0.00     0.142 C 
ATOM     16  H   UNL     1     -23.255  17.927 -32.876  1.00  0.00     0.163 HD
ENDBRANCH  11  12
ENDBRANCH   1  11
BRANCH   5  17
ATOM     17  C   UNL     1     -19.377  17.297 -28.589  1.00  0.00     0.166 C 
BRANCH  17  18
ATOM     18  C   UNL     1     -20.340  16.225 -28.280  1.00  0.00    -0.022 A 
ATOM     19  C   UNL     1     -20.279  15.003 -28.907  1.00  0.00     0.048 A 
ATOM     20  C   UNL     1     -21.357  16.408 -27.371  1.00  0.00     0.048 A 
ATOM     21  C   UNL     1     -21.223  14.007 -28.616  1.00  0.00     0.162 A 
ATOM     22  C   UNL     1     -22.286  15.452 -27.074  1.00  0.00     0.162 A 
ATOM     23  F   UNL     1     -21.153  12.812 -29.239  1.00  0.00    -0.204 F 
ATOM     24  C   UNL     1     -22.225  14.220 -27.706  1.00  0.00     0.194 A 
ATOM     25  F   UNL     1     -23.293  15.643 -26.184  1.00  0.00    -0.204 F 
ATOM     26  F   UNL     1     -23.136  13.227 -27.432  1.00  0.00    -0.200 F 
ENDBRANCH  17  18
ENDBRANCH   5  17
BRANCH   8  27
ATOM     27  C   UNL     1     -18.617  20.693 -26.495  1.00  0.00     0.067 A 
ATOM     28  C   UNL     1     -17.470  21.398 -26.774  1.00  0.00     0.032 A 
ATOM     29  C   UNL     1     -19.485  21.147 -25.537  1.00  0.00     0.032 A 
ATOM     30  C   UNL     1     -17.208  22.563 -26.082  1.00  0.00     0.048 A 
ATOM     31  C   UNL     1     -19.208  22.311 -24.859  1.00  0.00     0.048 A 
ATOM     32  C   UNL     1     -18.068  23.059 -25.102  1.00  0.00     0.119 A 
BRANCH  32  33
ATOM     33  O   UNL     1     -17.767  24.233 -24.432  1.00  0.00    -0.497 OA
ATOM     34  C   UNL     1     -18.831  25.011 -23.934  1.00  0.00     0.278 C 
ENDBRANCH  32  33
ENDBRANCH   8  27
TORSDOF 6
ENDMDL
MODEL 3
REMARK VINA RESULT:    -8.243      3.671      5.450
REMARK INTER + INTRA:         -11.470
REMARK INTER:                 -11.632
REMARK INTRA:                   0.162
REMARK UNBOUND:                -0.336
REMARK SMILES CNC(=O)Cn1c(=O)[nH]/c(=N\c2ccc(OC)cc2)n(Cc2cc(F)c(F)c(F)c2)c1=O
REMARK SMILES IDX 6 1 7 2 9 3 10 4 20 5 31 6 32 7 11 8 8 9 5 11 3 12 4 13 2 14
REMARK SMILES IDX 1 15 21 17 22 18 23 19 30 20 24 21 28 22 25 23 26 24 29 25
REMARK SMILES IDX 27 26 12 27 13 28 19 29 14 30 18 31 15 32 16 33 17 34
REMARK H PARENT 9 10 2 16
REMARK Flexibility Score: inf
ROOT
ATOM      1  N   UNL     1     -20.977  16.307 -24.909  1.00  0.00    -0.236 N 
ATOM      2  C   UNL     1     -20.597  17.499 -24.494  1.00  0.00     0.332 A 
ATOM      3  N   UNL     1     -19.953  18.325 -25.333  1.00  0.00    -0.277 N 
ATOM      4  C   UNL     1     -19.691  17.954 -26.590  1.00  0.00     0.215 A 
ATOM      5  N   UNL     1     -20.069  16.739 -27.047  1.00  0.00    -0.259 N 
ATOM      6  C   UNL     1     -20.714  15.938 -26.170  1.00  0.00     0.335 A 
ATOM      7  O   UNL     1     -21.071  14.806 -26.580  1.00  0.00    -0.247 OA
ATOM      8  N   UNL     1     -19.077  18.767 -27.421  1.00  0.00    -0.215 NA
ATOM      9  O   UNL     1     -20.827  17.868 -23.334  1.00  0.00    -0.248 OA
ATOM     10  H   UNL     1     -19.668  19.261 -24.964  1.00  0.00     0.175 HD
ENDROOT
BRANCH   1  11
ATOM     11  C   UNL     1     -21.659  15.377 -24.044  1.00  0.00     0.232 C 
BRANCH  11  12
ATOM     12  C   UNL     1     -20.742  14.577 -23.210  1.00  0.00     0.240 C 
ATOM     13  O   UNL     1     -21.175  13.575 -22.568  1.00  0.00    -0.273 OA
ATOM     14  N   UNL     1     -19.341  14.888 -23.089  1.00  0.00    -0.358 N 
ATOM     15  C   UNL     1     -18.487  14.051 -22.240  1.00  0.00     0.142 C 
ATOM     16  H   UNL     1     -18.999  15.709 -23.622  1.00  0.00     0.163 HD
ENDBRANCH  11  12
ENDBRANCH   1  11
BRANCH   5  17
ATOM     17  C   UNL     1     -19.748  16.417 -28.405  1.00  0.00     0.166 C 
BRANCH  17  18
ATOM     18  C   UNL     1     -20.891  16.477 -29.333  1.00  0.00    -0.022 A 
ATOM     19  C   UNL     1     -21.659  15.368 -29.599  1.00  0.00     0.048 A 
ATOM     20  C   UNL     1     -21.224  17.637 -29.995  1.00  0.00     0.048 A 
ATOM     21  C   UNL     1     -22.726  15.443 -30.506  1.00  0.00     0.162 A 
ATOM     22  C   UNL     1     -22.258  17.731 -30.882  1.00  0.00     0.162 A 
ATOM     23  F   UNL     1     -23.472  14.347 -30.759  1.00  0.00    -0.204 F 
ATOM     24  C   UNL     1     -23.032  16.614 -31.150  1.00  0.00     0.194 A 
ATOM     25  F   UNL     1     -22.573  18.876 -31.540  1.00  0.00    -0.204 F 
ATOM     26  F   UNL     1     -24.086  16.665 -32.032  1.00  0.00    -0.200 F 
ENDBRANCH  17  18
ENDBRANCH   5  17
BRANCH   8  27
ATOM     27  C   UNL     1     -18.730  20.036 -26.868  1.00  0.00     0.067 A 
ATOM     28  C   UNL     1     -17.434  20.479 -26.987  1.00  0.00     0.032 A 
ATOM     29  C   UNL     1     -19.662  20.809 -26.228  1.00  0.00     0.032 A 
ATOM     30  C   UNL     1     -17.088  21.706 -26.459  1.00  0.00     0.048 A 
ATOM     31  C   UNL     1     -19.301  22.029 -25.709  1.00  0.00     0.048 A 
ATOM     32  C   UNL     1     -18.009  22.523 -25.802  1.00  0.00     0.119 A 
BRANCH  32  33
ATOM     33  O   UNL     1     -17.620  23.747 -25.287  1.00  0.00    -0.497 OA
ATOM     34  C   UNL     1     -18.442  24.359 -24.318  1.00  0.00     0.278 C 
ENDBRANCH  32  33
ENDBRANCH   8  27
TORSDOF 6
ENDMDL
MODEL 4
REMARK VINA RESULT:    -8.134      3.906      6.508
REMARK INTER + INTRA:         -11.323
REMARK INTER:                 -11.173
REMARK INTRA:                  -0.149
REMARK UNBOUND:                -0.336
REMARK SMILES CNC(=O)Cn1c(=O)[nH]/c(=N\c2ccc(OC)cc2)n(Cc2cc(F)c(F)c(F)c2)c1=O
REMARK SMILES IDX 6 1 7 2 9 3 10 4 20 5 31 6 32 7 11 8 8 9 5 11 3 12 4 13 2 14
REMARK SMILES IDX 1 15 21 17 22 18 23 19 30 20 24 21 28 22 25 23 26 24 29 25
REMARK SMILES IDX 27 26 12 27 13 28 19 29 14 30 18 31 15 32 16 33 17 34
REMARK H PARENT 9 10 2 16
REMARK Flexibility Score: inf
ROOT
ATOM      1  N   UNL     1     -19.605  19.345 -26.558  1.00  0.00    -0.236 N 
ATOM      2  C   UNL     1     -19.857  18.893 -25.345  1.00  0.00     0.332 A 
ATOM      3  N   UNL     1     -20.025  17.577 -25.143  1.00  0.00    -0.277 N 
ATOM      4  C   UNL     1     -19.939  16.714 -26.159  1.00  0.00     0.215 A 
ATOM      5  N   UNL     1     -19.681  17.145 -27.415  1.00  0.00    -0.259 N 
ATOM      6  C   UNL     1     -19.519  18.477 -27.575  1.00  0.00     0.335 A 
ATOM      7  O   UNL     1     -19.279  18.892 -28.736  1.00  0.00    -0.247 OA
ATOM      8  N   UNL     1     -20.084  15.422 -25.963  1.00  0.00    -0.215 NA
ATOM      9  O   UNL     1     -19.943  19.672 -24.385  1.00  0.00    -0.248 OA
ATOM     10  H   UNL     1     -20.224  17.261 -24.167  1.00  0.00     0.175 HD
ENDROOT
BRANCH   1  11
ATOM     11  C   UNL     1     -19.432  20.750 -26.831  1.00  0.00     0.232 C 
BRANCH  11  12
ATOM     12  C   UNL     1     -18.080  21.244 -26.509  1.00  0.00     0.240 C 
ATOM     13  O   UNL     1     -17.064  20.529 -26.757  1.00  0.00    -0.273 OA
ATOM     14  N   UNL     1     -17.854  22.536 -25.914  1.00  0.00    -0.358 N 
ATOM     15  C   UNL     1     -16.483  22.964 -25.619  1.00  0.00     0.142 C 
ATOM     16  H   UNL     1     -18.694  23.112 -25.720  1.00  0.00     0.163 HD
ENDBRANCH  11  12
ENDBRANCH   1  11
BRANCH   5  17
ATOM     17  C   UNL     1     -19.607  16.156 -28.448  1.00  0.00     0.166 C 
BRANCH  17  18
ATOM     18  C   UNL     1     -20.857  15.972 -29.208  1.00  0.00    -0.022 A 
ATOM     19  C   UNL     1     -21.524  14.769 -29.212  1.00  0.00     0.048 A 
ATOM     20  C   UNL     1     -21.397  16.986 -29.964  1.00  0.00     0.048 A 
ATOM     21  C   UNL     1     -22.697  14.611 -29.964  1.00  0.00     0.162 A 
ATOM     22  C   UNL     1     -22.538  16.852 -30.703  1.00  0.00     0.162 A 
ATOM     23  F   UNL     1     -23.342  13.425 -29.961  1.00  0.00    -0.204 F 
ATOM     24  C   UNL     1     -23.210  15.640 -30.709  1.00  0.00     0.194 A 
ATOM     25  F   UNL     1     -23.059  17.854 -31.457  1.00  0.00    -0.204 F 
ATOM     26  F   UNL     1     -24.366  15.464 -31.434  1.00  0.00    -0.200 F 
ENDBRANCH  17  18
ENDBRANCH   5  17
BRANCH   8  27
ATOM     27  C   UNL     1     -20.334  15.048 -24.609  1.00  0.00     0.067 A 
ATOM     28  C   UNL     1     -21.578  15.285 -24.074  1.00  0.00     0.032 A 
ATOM     29  C   UNL     1     -19.359  14.462 -23.845  1.00  0.00     0.032 A 
ATOM     30  C   UNL     1     -21.831  14.925 -22.766  1.00  0.00     0.048 A 
ATOM     31  C   UNL     1     -19.629  14.108 -22.544  1.00  0.00     0.048 A 
ATOM     32  C   UNL     1     -20.865  14.324 -21.957  1.00  0.00     0.119 A 
BRANCH  32  33
ATOM     33  O   UNL     1     -21.161  13.977 -20.650  1.00  0.00    -0.497 OA
ATOM     34  C   UNL     1     -22.512  13.978 -20.245  1.00  0.00     0.278 C 
ENDBRANCH  32  33
ENDBRANCH   8  27
TORSDOF 6
ENDMDL
MODEL 5
REMARK VINA RESULT:    -8.106      3.912      6.313
REMARK INTER + INTRA:         -11.285
REMARK INTER:                 -11.181
REMARK INTRA:                  -0.104
REMARK UNBOUND:                -0.336
REMARK SMILES CNC(=O)Cn1c(=O)[nH]/c(=N\c2ccc(OC)cc2)n(Cc2cc(F)c(F)c(F)c2)c1=O
REMARK SMILES IDX 6 1 7 2 9 3 10 4 20 5 31 6 32 7 11 8 8 9 5 11 3 12 4 13 2 14
REMARK SMILES IDX 1 15 21 17 22 18 23 19 30 20 24 21 28 22 25 23 26 24 29 25
REMARK SMILES IDX 27 26 12 27 13 28 19 29 14 30 18 31 15 32 16 33 17 34
REMARK H PARENT 9 10 2 16
REMARK Flexibility Score: inf
ROOT
ATOM      1  N   UNL     1     -19.910  18.829 -26.731  1.00  0.00    -0.236 N 
ATOM      2  C   UNL     1     -20.212  18.501 -25.491  1.00  0.00     0.332 A 
ATOM      3  N   UNL     1     -20.270  17.208 -25.136  1.00  0.00    -0.277 N 
ATOM      4  C   UNL     1     -20.022  16.244 -26.028  1.00  0.00     0.215 A 
ATOM      5  N   UNL     1     -19.707  16.547 -27.307  1.00  0.00    -0.259 N 
ATOM      6  C   UNL     1     -19.661  17.860 -27.622  1.00  0.00     0.335 A 
ATOM      7  O   UNL     1     -19.371  18.158 -28.807  1.00  0.00    -0.247 OA
ATOM      8  N   UNL     1     -20.058  14.976 -25.681  1.00  0.00    -0.215 NA
ATOM      9  O   UNL     1     -20.448  19.375 -24.644  1.00  0.00    -0.248 OA
ATOM     10  H   UNL     1     -20.514  16.990 -24.143  1.00  0.00     0.175 HD
ENDROOT
BRANCH   1  11
ATOM     11  C   UNL     1     -19.850  20.202 -27.167  1.00  0.00     0.232 C 
BRANCH  11  12
ATOM     12  C   UNL     1     -18.721  20.951 -26.584  1.00  0.00     0.240 C 
ATOM     13  O   UNL     1     -17.565  20.434 -26.546  1.00  0.00    -0.273 OA
ATOM     14  N   UNL     1     -18.874  22.277 -26.043  1.00  0.00    -0.358 N 
ATOM     15  C   UNL     1     -17.707  22.964 -25.478  1.00  0.00     0.142 C 
ATOM     16  H   UNL     1     -19.824  22.689 -26.084  1.00  0.00     0.163 HD
ENDBRANCH  11  12
ENDBRANCH   1  11
BRANCH   5  17
ATOM     17  C   UNL     1     -19.458  15.455 -28.201  1.00  0.00     0.166 C 
BRANCH  17  18
ATOM     18  C   UNL     1     -20.663  14.913 -28.853  1.00  0.00    -0.022 A 
ATOM     19  C   UNL     1     -21.486  15.709 -29.615  1.00  0.00     0.048 A 
ATOM     20  C   UNL     1     -21.032  13.596 -28.707  1.00  0.00     0.048 A 
ATOM     21  C   UNL     1     -22.641  15.176 -30.204  1.00  0.00     0.162 A 
ATOM     22  C   UNL     1     -22.154  13.058 -29.271  1.00  0.00     0.162 A 
ATOM     23  F   UNL     1     -23.442  15.967 -30.950  1.00  0.00    -0.204 F 
ATOM     24  C   UNL     1     -22.983  13.859 -30.040  1.00  0.00     0.194 A 
ATOM     25  F   UNL     1     -22.518  11.760 -29.113  1.00  0.00    -0.204 F 
ATOM     26  F   UNL     1     -24.119  13.357 -30.631  1.00  0.00    -0.200 F 
ENDBRANCH  17  18
ENDBRANCH   5  17
BRANCH   8  27
ATOM     27  C   UNL     1     -20.378  14.741 -24.309  1.00  0.00     0.067 A 
ATOM     28  C   UNL     1     -19.428  14.167 -23.497  1.00  0.00     0.032 A 
ATOM     29  C   UNL     1     -21.604  15.076 -23.800  1.00  0.00     0.032 A 
ATOM     30  C   UNL     1     -19.725  13.937 -22.169  1.00  0.00     0.048 A 
ATOM     31  C   UNL     1     -21.883  14.840 -22.474  1.00  0.00     0.048 A 
ATOM     32  C   UNL     1     -20.962  14.266 -21.613  1.00  0.00     0.119 A 
BRANCH  32  33
ATOM     33  O   UNL     1     -21.219  14.018 -20.275  1.00  0.00    -0.497 OA
ATOM     34  C   UNL     1     -22.561  13.937 -19.854  1.00  0.00     0.278 C 
ENDBRANCH  32  33
ENDBRANCH   8  27
TORSDOF 6
ENDMDL
