MODEL 1
REMARK VINA RESULT:    -8.481      0.000      0.000
REMARK INTER + INTRA:         -11.724
REMARK INTER:                 -11.103
REMARK INTRA:                  -0.621
REMARK UNBOUND:                -0.765
REMARK SMILES CNC(=O)Cn1c(=O)[nH]/c(=N\c2cc3sc(C)nc3cc2C)n(Cc2ccc(F)cc2)c1=O
REMARK SMILES IDX 8 1 7 2 9 3 10 4 23 5 11 6 6 7 32 8 33 9 5 11 3 12 2 13 4 14
REMARK SMILES IDX 1 15 24 17 25 18 26 19 31 20 27 21 30 22 28 23 29 24 12 25
REMARK SMILES IDX 21 26 13 27 22 28 20 29 14 30 19 31 15 32 18 33 16 34 17 35
REMARK H PARENT 9 10 2 16
REMARK Flexibility Score: inf
ROOT
ATOM      1  O   UNL     1     -20.520  18.086 -21.572  1.00  0.00    -0.248 OA
ATOM      2  C   UNL     1     -20.924  17.861 -22.763  1.00  0.00     0.332 A 
ATOM      3  N   UNL     1     -20.636  18.772 -23.709  1.00  0.00    -0.277 N 
ATOM      4  C   UNL     1     -21.063  18.539 -24.975  1.00  0.00     0.215 A 
ATOM      5  N   UNL     1     -21.752  17.420 -25.252  1.00  0.00    -0.259 N 
ATOM      6  N   UNL     1     -20.755  19.435 -25.853  1.00  0.00    -0.214 NA
ATOM      7  N   UNL     1     -21.611  16.746 -23.045  1.00  0.00    -0.236 N 
ATOM      8  C   UNL     1     -22.032  16.516 -24.299  1.00  0.00     0.335 A 
ATOM      9  O   UNL     1     -22.688  15.442 -24.554  1.00  0.00    -0.247 OA
ATOM     10  H   UNL     1     -20.101  19.633 -23.468  1.00  0.00     0.175 HD
ENDROOT
BRANCH   7  11
ATOM     11  C   UNL     1     -21.905  15.790 -22.028  1.00  0.00     0.232 C 
BRANCH  11  12
ATOM     12  C   UNL     1     -20.948  14.645 -22.008  1.00  0.00     0.240 C 
ATOM     13  N   UNL     1     -19.560  14.993 -21.933  1.00  0.00    -0.358 N 
ATOM     14  O   UNL     1     -21.324  13.448 -22.053  1.00  0.00    -0.273 OA
ATOM     15  C   UNL     1     -18.553  13.974 -21.907  1.00  0.00     0.142 C 
ATOM     16  H   UNL     1     -19.256  15.997 -21.895  1.00  0.00     0.163 HD
ENDBRANCH  11  12
ENDBRANCH   7  11
BRANCH   5  17
ATOM     17  C   UNL     1     -22.194  17.191 -26.592  1.00  0.00     0.166 C 
BRANCH  17  18
ATOM     18  C   UNL     1     -21.514  16.133 -27.338  1.00  0.00    -0.028 A 
ATOM     19  C   UNL     1     -22.232  15.063 -27.826  1.00  0.00     0.008 A 
ATOM     20  C   UNL     1     -20.148  16.144 -27.591  1.00  0.00     0.008 A 
ATOM     21  C   UNL     1     -21.596  14.039 -28.543  1.00  0.00     0.039 A 
ATOM     22  C   UNL     1     -19.512  15.122 -28.307  1.00  0.00     0.039 A 
ATOM     23  C   UNL     1     -20.242  14.060 -28.787  1.00  0.00     0.123 A 
ATOM     24  F   UNL     1     -19.629  13.072 -29.479  1.00  0.00    -0.207 F 
ENDBRANCH  17  18
ENDBRANCH   5  17
BRANCH   6  25
ATOM     25  C   UNL     1     -20.029  20.604 -25.592  1.00  0.00     0.071 A 
ATOM     26  C   UNL     1     -18.820  20.880 -26.182  1.00  0.00    -0.023 A 
ATOM     27  C   UNL     1     -20.525  21.532 -24.714  1.00  0.00     0.050 A 
ATOM     28  C   UNL     1     -18.199  19.920 -27.159  1.00  0.00     0.047 C 
ATOM     29  C   UNL     1     -18.102  22.023 -25.932  1.00  0.00     0.035 A 
ATOM     30  C   UNL     1     -19.808  22.708 -24.442  1.00  0.00     0.057 A 
ATOM     31  C   UNL     1     -18.602  22.987 -25.029  1.00  0.00     0.082 A 
ATOM     32  S   UNL     1     -20.034  24.093 -23.454  1.00  0.00    -0.119 S 
ATOM     33  N   UNL     1     -18.024  24.110 -24.703  1.00  0.00    -0.242 NA
ATOM     34  C   UNL     1     -18.596  24.928 -23.844  1.00  0.00     0.091 A 
ATOM     35  C   UNL     1     -18.054  26.249 -23.376  1.00  0.00     0.079 C 
ENDBRANCH   6  25
TORSDOF 5
ENDMDL
MODEL 2
REMARK VINA RESULT:    -8.164      4.576      7.088
REMARK INTER + INTRA:         -11.315
REMARK INTER:                 -10.785
REMARK INTRA:                  -0.529
REMARK UNBOUND:                -0.765
REMARK SMILES CNC(=O)Cn1c(=O)[nH]/c(=N\c2cc3sc(C)nc3cc2C)n(Cc2ccc(F)cc2)c1=O
REMARK SMILES IDX 8 1 7 2 9 3 10 4 23 5 11 6 6 7 32 8 33 9 5 11 3 12 2 13 4 14
REMARK SMILES IDX 1 15 24 17 25 18 26 19 31 20 27 21 30 22 28 23 29 24 12 25
REMARK SMILES IDX 21 26 13 27 22 28 20 29 14 30 19 31 15 32 18 33 16 34 17 35
REMARK H PARENT 9 10 2 16
REMARK Flexibility Score: inf
ROOT
ATOM      1  O   UNL     1     -19.524  21.780 -28.891  1.00  0.00    -0.248 OA
ATOM      2  C   UNL     1     -19.887  20.730 -28.260  1.00  0.00     0.332 A 
ATOM      3  N   UNL     1     -20.949  20.049 -28.726  1.00  0.00    -0.277 N 
ATOM      4  C   UNL     1     -21.340  18.934 -28.060  1.00  0.00     0.215 A 
ATOM      5  N   UNL     1     -20.667  18.540 -26.966  1.00  0.00    -0.259 N 
ATOM      6  N   UNL     1     -22.356  18.307 -28.549  1.00  0.00    -0.214 NA
ATOM      7  N   UNL     1     -19.219  20.332 -27.168  1.00  0.00    -0.236 N 
ATOM      8  C   UNL     1     -19.607  19.227 -26.510  1.00  0.00     0.335 A 
ATOM      9  O   UNL     1     -18.955  18.858 -25.467  1.00  0.00    -0.247 OA
ATOM     10  H   UNL     1     -21.455  20.377 -29.576  1.00  0.00     0.175 HD
ENDROOT
BRANCH   7  11
ATOM     11  C   UNL     1     -18.094  21.066 -26.690  1.00  0.00     0.232 C 
BRANCH  11  12
ATOM     12  C   UNL     1     -18.476  22.231 -25.838  1.00  0.00     0.240 C 
ATOM     13  N   UNL     1     -19.550  22.006 -24.917  1.00  0.00    -0.358 N 
ATOM     14  O   UNL     1     -17.900  23.345 -25.918  1.00  0.00    -0.273 OA
ATOM     15  C   UNL     1     -20.000  23.055 -24.050  1.00  0.00     0.142 C 
ATOM     16  H   UNL     1     -20.024  21.072 -24.859  1.00  0.00     0.163 HD
ENDBRANCH  11  12
ENDBRANCH   7  11
BRANCH   5  17
ATOM     17  C   UNL     1     -21.093  17.363 -26.276  1.00  0.00     0.166 C 
BRANCH  17  18
ATOM     18  C   UNL     1     -21.112  16.120 -27.046  1.00  0.00    -0.028 A 
ATOM     19  C   UNL     1     -22.214  15.295 -26.996  1.00  0.00     0.008 A 
ATOM     20  C   UNL     1     -20.054  15.710 -27.848  1.00  0.00     0.008 A 
ATOM     21  C   UNL     1     -22.250  14.099 -27.728  1.00  0.00     0.039 A 
ATOM     22  C   UNL     1     -20.088  14.517 -28.579  1.00  0.00     0.039 A 
ATOM     23  C   UNL     1     -21.195  13.703 -28.519  1.00  0.00     0.123 A 
ATOM     24  F   UNL     1     -21.230  12.550 -29.225  1.00  0.00    -0.207 F 
ENDBRANCH  17  18
ENDBRANCH   5  17
BRANCH   6  25
ATOM     25  C   UNL     1     -23.067  18.691 -29.693  1.00  0.00     0.071 A 
ATOM     26  C   UNL     1     -23.107  17.933 -30.838  1.00  0.00    -0.023 A 
ATOM     27  C   UNL     1     -23.765  19.870 -29.696  1.00  0.00     0.050 A 
ATOM     28  C   UNL     1     -22.371  16.624 -30.924  1.00  0.00     0.047 C 
ATOM     29  C   UNL     1     -23.802  18.302 -31.963  1.00  0.00     0.035 A 
ATOM     30  C   UNL     1     -24.483  20.268 -30.836  1.00  0.00     0.057 A 
ATOM     31  C   UNL     1     -24.525  19.515 -31.980  1.00  0.00     0.082 A 
ATOM     32  S   UNL     1     -25.461  21.608 -31.276  1.00  0.00    -0.119 S 
ATOM     33  N   UNL     1     -25.222  19.982 -32.977  1.00  0.00    -0.242 NA
ATOM     34  C   UNL     1     -25.855  21.132 -32.867  1.00  0.00     0.091 A 
ATOM     35  C   UNL     1     -26.693  21.792 -33.925  1.00  0.00     0.079 C 
ENDBRANCH   6  25
TORSDOF 5
ENDMDL
MODEL 3
REMARK VINA RESULT:    -8.130      4.004      5.831
REMARK INTER + INTRA:         -11.271
REMARK INTER:                 -10.526
REMARK INTRA:                  -0.745
REMARK UNBOUND:                -0.765
REMARK SMILES CNC(=O)Cn1c(=O)[nH]/c(=N\c2cc3sc(C)nc3cc2C)n(Cc2ccc(F)cc2)c1=O
REMARK SMILES IDX 8 1 7 2 9 3 10 4 23 5 11 6 6 7 32 8 33 9 5 11 3 12 2 13 4 14
REMARK SMILES IDX 1 15 24 17 25 18 26 19 31 20 27 21 30 22 28 23 29 24 12 25
REMARK SMILES IDX 21 26 13 27 22 28 20 29 14 30 19 31 15 32 18 33 16 34 17 35
REMARK H PARENT 9 10 2 16
REMARK Flexibility Score: inf
ROOT
ATOM      1  O   UNL     1     -21.518  22.519 -30.074  1.00  0.00    -0.248 OA
ATOM      2  C   UNL     1     -21.031  21.398 -29.699  1.00  0.00     0.332 A 
ATOM      3  N   UNL     1     -20.330  21.366 -28.553  1.00  0.00    -0.277 N 
ATOM      4  C   UNL     1     -19.809  20.180 -28.151  1.00  0.00     0.215 A 
ATOM      5  N   UNL     1     -20.003  19.079 -28.897  1.00  0.00    -0.259 N 
ATOM      6  N   UNL     1     -19.154  20.194 -27.039  1.00  0.00    -0.214 NA
ATOM      7  N   UNL     1     -21.222  20.297 -30.439  1.00  0.00    -0.236 N 
ATOM      8  C   UNL     1     -20.707  19.123 -30.040  1.00  0.00     0.335 A 
ATOM      9  O   UNL     1     -20.900  18.076 -30.758  1.00  0.00    -0.247 OA
ATOM     10  H   UNL     1     -20.192  22.235 -27.993  1.00  0.00     0.175 HD
ENDROOT
BRANCH   7  11
ATOM     11  C   UNL     1     -21.970  20.350 -31.652  1.00  0.00     0.232 C 
BRANCH  11  12
ATOM     12  C   UNL     1     -23.386  19.911 -31.485  1.00  0.00     0.240 C 
ATOM     13  N   UNL     1     -23.712  18.629 -32.036  1.00  0.00    -0.358 N 
ATOM     14  O   UNL     1     -24.248  20.614 -30.902  1.00  0.00    -0.273 OA
ATOM     15  C   UNL     1     -25.043  18.107 -31.933  1.00  0.00     0.142 C 
ATOM     16  H   UNL     1     -22.984  18.049 -32.521  1.00  0.00     0.163 HD
ENDBRANCH  11  12
ENDBRANCH   7  11
BRANCH   5  17
ATOM     17  C   UNL     1     -19.448  17.838 -28.458  1.00  0.00     0.166 C 
BRANCH  17  18
ATOM     18  C   UNL     1     -20.392  16.760 -28.165  1.00  0.00    -0.028 A 
ATOM     19  C   UNL     1     -20.212  15.515 -28.725  1.00  0.00     0.008 A 
ATOM     20  C   UNL     1     -21.491  16.924 -27.331  1.00  0.00     0.008 A 
ATOM     21  C   UNL     1     -21.108  14.470 -28.455  1.00  0.00     0.039 A 
ATOM     22  C   UNL     1     -22.386  15.882 -27.061  1.00  0.00     0.039 A 
ATOM     23  C   UNL     1     -22.194  14.644 -27.628  1.00  0.00     0.123 A 
ATOM     24  F   UNL     1     -23.059  13.636 -27.368  1.00  0.00    -0.207 F 
ENDBRANCH  17  18
ENDBRANCH   5  17
BRANCH   6  25
ATOM     25  C   UNL     1     -18.947  21.325 -26.239  1.00  0.00     0.071 A 
ATOM     26  C   UNL     1     -17.819  22.105 -26.325  1.00  0.00    -0.023 A 
ATOM     27  C   UNL     1     -19.897  21.694 -25.323  1.00  0.00     0.050 A 
ATOM     28  C   UNL     1     -16.724  21.777 -27.302  1.00  0.00     0.047 C 
ATOM     29  C   UNL     1     -17.610  23.215 -25.544  1.00  0.00     0.035 A 
ATOM     30  C   UNL     1     -19.704  22.825 -24.514  1.00  0.00     0.057 A 
ATOM     31  C   UNL     1     -18.581  23.605 -24.596  1.00  0.00     0.082 A 
ATOM     32  S   UNL     1     -20.587  23.629 -23.282  1.00  0.00    -0.119 S 
ATOM     33  N   UNL     1     -18.507  24.632 -23.796  1.00  0.00    -0.242 NA
ATOM     34  C   UNL     1     -19.485  24.890 -22.952  1.00  0.00     0.091 A 
ATOM     35  C   UNL     1     -19.540  26.031 -21.975  1.00  0.00     0.079 C 
ENDBRANCH   6  25
TORSDOF 5
ENDMDL
MODEL 4
REMARK VINA RESULT:    -8.066      4.997      7.281
REMARK INTER + INTRA:         -11.188
REMARK INTER:                 -10.359
REMARK INTRA:                  -0.830
REMARK UNBOUND:                -0.765
REMARK SMILES CNC(=O)Cn1c(=O)[nH]/c(=N\c2cc3sc(C)nc3cc2C)n(Cc2ccc(F)cc2)c1=O
REMARK SMILES IDX 8 1 7 2 9 3 10 4 23 5 11 6 6 7 32 8 33 9 5 11 3 12 2 13 4 14
REMARK SMILES IDX 1 15 24 17 25 18 26 19 31 20 27 21 30 22 28 23 29 24 12 25
REMARK SMILES IDX 21 26 13 27 22 28 20 29 14 30 19 31 15 32 18 33 16 34 17 35
REMARK H PARENT 9 10 2 16
REMARK Flexibility Score: inf
ROOT
ATOM      1  O   UNL     1     -21.336  15.850 -30.367  1.00  0.00    -0.248 OA
ATOM      2  C   UNL     1     -21.151  16.571 -29.327  1.00  0.00     0.332 A 
ATOM      3  N   UNL     1     -21.556  17.852 -29.368  1.00  0.00    -0.277 N 
ATOM      4  C   UNL     1     -21.362  18.622 -28.268  1.00  0.00     0.215 A 
ATOM      5  N   UNL     1     -20.779  18.094 -27.178  1.00  0.00    -0.259 N 
ATOM      6  N   UNL     1     -21.775  19.842 -28.348  1.00  0.00    -0.214 NA
ATOM      7  N   UNL     1     -20.571  16.049 -28.237  1.00  0.00    -0.236 N 
ATOM      8  C   UNL     1     -20.381  16.812 -27.149  1.00  0.00     0.335 A 
ATOM      9  O   UNL     1     -19.826  16.298 -26.111  1.00  0.00    -0.247 OA
ATOM     10  H   UNL     1     -22.004  18.238 -30.226  1.00  0.00     0.175 HD
ENDROOT
BRANCH   7  11
ATOM     11  C   UNL     1     -20.150  14.687 -28.212  1.00  0.00     0.232 C 
BRANCH  11  12
ATOM     12  C   UNL     1     -21.289  13.724 -28.166  1.00  0.00     0.240 C 
ATOM     13  N   UNL     1     -21.537  12.991 -29.371  1.00  0.00    -0.358 N 
ATOM     14  O   UNL     1     -21.994  13.559 -27.139  1.00  0.00    -0.273 OA
ATOM     15  C   UNL     1     -22.606  12.039 -29.440  1.00  0.00     0.142 C 
ATOM     16  H   UNL     1     -20.942  13.136 -30.223  1.00  0.00     0.163 HD
ENDBRANCH  11  12
ENDBRANCH   7  11
BRANCH   5  17
ATOM     17  C   UNL     1     -20.583  18.920 -26.028  1.00  0.00     0.166 C 
BRANCH  17  18
ATOM     18  C   UNL     1     -19.543  19.944 -26.123  1.00  0.00    -0.028 A 
ATOM     19  C   UNL     1     -19.681  21.132 -25.439  1.00  0.00     0.008 A 
ATOM     20  C   UNL     1     -18.391  19.783 -26.882  1.00  0.00     0.008 A 
ATOM     21  C   UNL     1     -18.693  22.124 -25.518  1.00  0.00     0.039 A 
ATOM     22  C   UNL     1     -17.403  20.773 -26.961  1.00  0.00     0.039 A 
ATOM     23  C   UNL     1     -17.555  21.955 -26.274  1.00  0.00     0.123 A 
ATOM     24  F   UNL     1     -16.602  22.912 -26.350  1.00  0.00    -0.207 F 
ENDBRANCH  17  18
ENDBRANCH   5  17
BRANCH   6  25
ATOM     25  C   UNL     1     -22.395  20.412 -29.468  1.00  0.00     0.071 A 
ATOM     26  C   UNL     1     -21.787  21.356 -30.258  1.00  0.00    -0.023 A 
ATOM     27  C   UNL     1     -23.663  20.027 -29.813  1.00  0.00     0.050 A 
ATOM     28  C   UNL     1     -20.395  21.839 -29.955  1.00  0.00     0.047 C 
ATOM     29  C   UNL     1     -22.387  21.919 -31.357  1.00  0.00     0.035 A 
ATOM     30  C   UNL     1     -24.298  20.590 -30.933  1.00  0.00     0.057 A 
ATOM     31  C   UNL     1     -23.694  21.531 -31.724  1.00  0.00     0.082 A 
ATOM     32  S   UNL     1     -25.818  20.416 -31.710  1.00  0.00    -0.119 S 
ATOM     33  N   UNL     1     -24.376  21.985 -32.738  1.00  0.00    -0.242 NA
ATOM     34  C   UNL     1     -25.593  21.541 -32.975  1.00  0.00     0.091 A 
ATOM     35  C   UNL     1     -26.494  21.967 -34.099  1.00  0.00     0.079 C 
ENDBRANCH   6  25
TORSDOF 5
ENDMDL
MODEL 5
REMARK VINA RESULT:    -8.039      3.158      4.267
REMARK INTER + INTRA:         -11.154
REMARK INTER:                 -10.281
REMARK INTRA:                  -0.873
REMARK UNBOUND:                -0.765
REMARK SMILES CNC(=O)Cn1c(=O)[nH]/c(=N\c2cc3sc(C)nc3cc2C)n(Cc2ccc(F)cc2)c1=O
REMARK SMILES IDX 8 1 7 2 9 3 10 4 23 5 11 6 6 7 32 8 33 9 5 11 3 12 2 13 4 14
REMARK SMILES IDX 1 15 24 17 25 18 26 19 31 20 27 21 30 22 28 23 29 24 12 25
REMARK SMILES IDX 21 26 13 27 22 28 20 29 14 30 19 31 15 32 18 33 16 34 17 35
REMARK H PARENT 9 10 2 16
REMARK Flexibility Score: inf
ROOT
ATOM      1  O   UNL     1     -22.862  19.605 -23.864  1.00  0.00    -0.248 OA
ATOM      2  C   UNL     1     -22.188  18.608 -24.292  1.00  0.00     0.332 A 
ATOM      3  N   UNL     1     -21.588  18.719 -25.490  1.00  0.00    -0.277 N 
ATOM      4  C   UNL     1     -20.872  17.663 -25.950  1.00  0.00     0.215 A 
ATOM      5  N   UNL     1     -20.779  16.546 -25.209  1.00  0.00    -0.259 N 
ATOM      6  N   UNL     1     -20.305  17.819 -27.099  1.00  0.00    -0.214 NA
ATOM      7  N   UNL     1     -22.091  17.491 -23.556  1.00  0.00    -0.236 N 
ATOM      8  C   UNL     1     -21.381  16.447 -24.013  1.00  0.00     0.335 A 
ATOM      9  O   UNL     1     -21.296  15.385 -23.296  1.00  0.00    -0.247 OA
ATOM     10  H   UNL     1     -21.677  19.596 -26.046  1.00  0.00     0.175 HD
ENDROOT
BRANCH   7  11
ATOM     11  C   UNL     1     -22.733  17.392 -22.287  1.00  0.00     0.232 C 
BRANCH  11  12
ATOM     12  C   UNL     1     -21.991  18.096 -21.200  1.00  0.00     0.240 C 
ATOM     13  N   UNL     1     -22.584  19.311 -20.724  1.00  0.00    -0.358 N 
ATOM     14  O   UNL     1     -20.913  17.660 -20.725  1.00  0.00    -0.273 OA
ATOM     15  C   UNL     1     -21.957  20.069 -19.683  1.00  0.00     0.142 C 
ATOM     16  H   UNL     1     -23.485  19.666 -21.128  1.00  0.00     0.163 HD
ENDBRANCH  11  12
ENDBRANCH   7  11
BRANCH   5  17
ATOM     17  C   UNL     1     -20.019  15.444 -25.710  1.00  0.00     0.166 C 
BRANCH  17  18
ATOM     18  C   UNL     1     -20.627  14.660 -26.785  1.00  0.00    -0.028 A 
ATOM     19  C   UNL     1     -19.865  14.258 -27.860  1.00  0.00     0.008 A 
ATOM     20  C   UNL     1     -21.965  14.287 -26.785  1.00  0.00     0.008 A 
ATOM     21  C   UNL     1     -20.431  13.507 -28.900  1.00  0.00     0.039 A 
ATOM     22  C   UNL     1     -22.531  13.536 -27.823  1.00  0.00     0.039 A 
ATOM     23  C   UNL     1     -21.758  13.142 -28.890  1.00  0.00     0.123 A 
ATOM     24  F   UNL     1     -22.304  12.417 -29.893  1.00  0.00    -0.207 F 
ENDBRANCH  17  18
ENDBRANCH   5  17
BRANCH   6  25
ATOM     25  C   UNL     1     -20.378  18.976 -27.885  1.00  0.00     0.071 A 
ATOM     26  C   UNL     1     -19.545  20.054 -27.707  1.00  0.00    -0.023 A 
ATOM     27  C   UNL     1     -21.311  19.062 -28.884  1.00  0.00     0.050 A 
ATOM     28  C   UNL     1     -18.490  20.048 -26.636  1.00  0.00     0.047 C 
ATOM     29  C   UNL     1     -19.610  21.191 -28.474  1.00  0.00     0.035 A 
ATOM     30  C   UNL     1     -21.397  20.216 -29.680  1.00  0.00     0.057 A 
ATOM     31  C   UNL     1     -20.568  21.292 -29.506  1.00  0.00     0.082 A 
ATOM     32  S   UNL     1     -22.370  20.743 -30.992  1.00  0.00    -0.119 S 
ATOM     33  N   UNL     1     -20.736  22.311 -30.303  1.00  0.00    -0.242 NA
ATOM     34  C   UNL     1     -21.670  22.282 -31.232  1.00  0.00     0.091 A 
ATOM     35  C   UNL     1     -21.980  23.373 -32.218  1.00  0.00     0.079 C 
ENDBRANCH   6  25
TORSDOF 5
ENDMDL
