MODEL 1
REMARK VINA RESULT:    -8.418      0.000      0.000
REMARK INTER + INTRA:         -11.280
REMARK INTER:                 -10.541
REMARK INTRA:                  -0.739
REMARK UNBOUND:                -0.401
REMARK SMILES CNC(=O)Cn1c(=O)[nH]/c(=N\c2cc3sc(C)nc3cc2C)n(Cc2ccccc2)c1=O
REMARK SMILES IDX 8 1 7 2 9 3 10 4 23 5 11 6 6 7 31 8 32 9 5 11 3 12 2 13 4 14
REMARK SMILES IDX 1 15 24 17 25 18 26 19 30 20 27 21 29 22 28 23 12 24 21 25
REMARK SMILES IDX 13 26 22 27 20 28 14 29 19 30 15 31 18 32 16 33 17 34
REMARK H PARENT 9 10 2 16
REMARK Flexibility Score: inf
ROOT
ATOM      1  O   UNL     1     -19.568  21.409 -28.871  1.00  0.00    -0.248 OA
ATOM      2  C   UNL     1     -19.925  20.370 -28.259  1.00  0.00     0.332 A 
ATOM      3  N   UNL     1     -20.974  19.681 -28.724  1.00  0.00    -0.277 N 
ATOM      4  C   UNL     1     -21.375  18.553 -28.072  1.00  0.00     0.215 A 
ATOM      5  N   UNL     1     -20.758  18.094 -26.968  1.00  0.00    -0.259 N 
ATOM      6  N   UNL     1     -22.374  17.952 -28.572  1.00  0.00    -0.214 NA
ATOM      7  N   UNL     1     -19.299  19.915 -27.150  1.00  0.00    -0.236 N 
ATOM      8  C   UNL     1     -19.703  18.791 -26.505  1.00  0.00     0.335 A 
ATOM      9  O   UNL     1     -19.045  18.462 -25.485  1.00  0.00    -0.247 OA
ATOM     10  H   UNL     1     -21.481  20.013 -29.586  1.00  0.00     0.175 HD
ENDROOT
BRANCH   7  11
ATOM     11  C   UNL     1     -18.171  20.653 -26.647  1.00  0.00     0.232 C 
BRANCH  11  12
ATOM     12  C   UNL     1     -18.627  21.835 -25.869  1.00  0.00     0.240 C 
ATOM     13  N   UNL     1     -19.459  21.638 -24.732  1.00  0.00    -0.358 N 
ATOM     14  O   UNL     1     -18.265  22.987 -26.236  1.00  0.00    -0.273 OA
ATOM     15  C   UNL     1     -19.904  22.785 -23.976  1.00  0.00     0.142 C 
ATOM     16  H   UNL     1     -19.721  20.651 -24.486  1.00  0.00     0.163 HD
ENDBRANCH  11  12
ENDBRANCH   7  11
BRANCH   5  17
ATOM     17  C   UNL     1     -21.185  16.898 -26.281  1.00  0.00     0.166 C 
BRANCH  17  18
ATOM     18  C   UNL     1     -21.145  15.674 -27.082  1.00  0.00    -0.028 A 
ATOM     19  C   UNL     1     -20.010  15.282 -27.781  1.00  0.00     0.005 A 
ATOM     20  C   UNL     1     -22.243  14.848 -27.179  1.00  0.00     0.005 A 
ATOM     21  C   UNL     1     -19.989  14.112 -28.539  1.00  0.00     0.000 A 
ATOM     22  C   UNL     1     -22.226  13.675 -27.937  1.00  0.00     0.000 A 
ATOM     23  C   UNL     1     -21.095  13.295 -28.626  1.00  0.00     0.000 A 
ENDBRANCH  17  18
ENDBRANCH   5  17
BRANCH   6  24
ATOM     24  C   UNL     1     -23.094  18.331 -29.716  1.00  0.00     0.071 A 
ATOM     25  C   UNL     1     -23.126  17.579 -30.859  1.00  0.00    -0.023 A 
ATOM     26  C   UNL     1     -23.808  19.503 -29.712  1.00  0.00     0.050 A 
ATOM     27  C   UNL     1     -22.372  16.296 -30.927  1.00  0.00     0.047 C 
ATOM     28  C   UNL     1     -23.830  17.947 -31.976  1.00  0.00     0.035 A 
ATOM     29  C   UNL     1     -24.539  19.904 -30.846  1.00  0.00     0.057 A 
ATOM     30  C   UNL     1     -24.567  19.148 -31.988  1.00  0.00     0.082 A 
ATOM     31  S   UNL     1     -25.532  21.226 -31.281  1.00  0.00    -0.119 S 
ATOM     32  N   UNL     1     -25.272  19.604 -32.985  1.00  0.00    -0.242 NA
ATOM     33  C   UNL     1     -25.922  20.746 -32.875  1.00  0.00     0.091 A 
ATOM     34  C   UNL     1     -26.784  21.441 -33.899  1.00  0.00     0.079 C 
ENDBRANCH   6  24
TORSDOF 5
ENDMDL
MODEL 2
REMARK VINA RESULT:    -8.381      4.533      7.124
REMARK INTER + INTRA:         -11.232
REMARK INTER:                 -10.688
REMARK INTRA:                  -0.543
REMARK UNBOUND:                -0.401
REMARK SMILES CNC(=O)Cn1c(=O)[nH]/c(=N\c2cc3sc(C)nc3cc2C)n(Cc2ccccc2)c1=O
REMARK SMILES IDX 8 1 7 2 9 3 10 4 23 5 11 6 6 7 31 8 32 9 5 11 3 12 2 13 4 14
REMARK SMILES IDX 1 15 24 17 25 18 26 19 30 20 27 21 29 22 28 23 12 24 21 25
REMARK SMILES IDX 13 26 22 27 20 28 14 29 19 30 15 31 18 32 16 33 17 34
REMARK H PARENT 9 10 2 16
REMARK Flexibility Score: inf
ROOT
ATOM      1  O   UNL     1     -20.593  18.051 -21.637  1.00  0.00    -0.248 OA
ATOM      2  C   UNL     1     -20.973  17.828 -22.814  1.00  0.00     0.332 A 
ATOM      3  N   UNL     1     -20.670  18.720 -23.765  1.00  0.00    -0.277 N 
ATOM      4  C   UNL     1     -21.075  18.494 -25.047  1.00  0.00     0.215 A 
ATOM      5  N   UNL     1     -21.775  17.402 -25.405  1.00  0.00    -0.259 N 
ATOM      6  N   UNL     1     -20.748  19.380 -25.893  1.00  0.00    -0.214 NA
ATOM      7  N   UNL     1     -21.675  16.728 -23.167  1.00  0.00    -0.236 N 
ATOM      8  C   UNL     1     -22.076  16.508 -24.445  1.00  0.00     0.335 A 
ATOM      9  O   UNL     1     -22.723  15.450 -24.657  1.00  0.00    -0.247 OA
ATOM     10  H   UNL     1     -20.123  19.586 -23.519  1.00  0.00     0.175 HD
ENDROOT
BRANCH   7  11
ATOM     11  C   UNL     1     -22.003  15.767 -22.147  1.00  0.00     0.232 C 
BRANCH  11  12
ATOM     12  C   UNL     1     -20.974  14.695 -22.091  1.00  0.00     0.240 C 
ATOM     13  N   UNL     1     -19.598  15.055 -22.059  1.00  0.00    -0.358 N 
ATOM     14  O   UNL     1     -21.346  13.489 -22.074  1.00  0.00    -0.273 OA
ATOM     15  C   UNL     1     -18.598  14.015 -22.006  1.00  0.00     0.142 C 
ATOM     16  H   UNL     1     -19.362  16.078 -22.077  1.00  0.00     0.163 HD
ENDBRANCH  11  12
ENDBRANCH   7  11
BRANCH   5  17
ATOM     17  C   UNL     1     -22.200  17.166 -26.765  1.00  0.00     0.166 C 
BRANCH  17  18
ATOM     18  C   UNL     1     -21.483  16.099 -27.463  1.00  0.00    -0.028 A 
ATOM     19  C   UNL     1     -20.130  16.189 -27.767  1.00  0.00     0.005 A 
ATOM     20  C   UNL     1     -22.125  14.944 -27.854  1.00  0.00     0.005 A 
ATOM     21  C   UNL     1     -19.462  15.163 -28.432  1.00  0.00     0.000 A 
ATOM     22  C   UNL     1     -21.459  13.913 -28.520  1.00  0.00     0.000 A 
ATOM     23  C   UNL     1     -20.118  14.013 -28.817  1.00  0.00     0.000 A 
ENDBRANCH  17  18
ENDBRANCH   5  17
BRANCH   6  24
ATOM     24  C   UNL     1     -20.021  20.554 -25.640  1.00  0.00     0.071 A 
ATOM     25  C   UNL     1     -18.819  20.828 -26.235  1.00  0.00    -0.023 A 
ATOM     26  C   UNL     1     -20.517  21.485 -24.763  1.00  0.00     0.050 A 
ATOM     27  C   UNL     1     -18.226  19.857 -27.197  1.00  0.00     0.047 C 
ATOM     28  C   UNL     1     -18.108  21.974 -25.989  1.00  0.00     0.035 A 
ATOM     29  C   UNL     1     -19.807  22.670 -24.493  1.00  0.00     0.057 A 
ATOM     30  C   UNL     1     -18.603  22.939 -25.090  1.00  0.00     0.082 A 
ATOM     31  S   UNL     1     -20.025  24.055 -23.515  1.00  0.00    -0.119 S 
ATOM     32  N   UNL     1     -18.022  24.062 -24.776  1.00  0.00    -0.242 NA
ATOM     33  C   UNL     1     -18.588  24.888 -23.918  1.00  0.00     0.091 A 
ATOM     34  C   UNL     1     -18.086  26.222 -23.425  1.00  0.00     0.079 C 
ENDBRANCH   6  24
TORSDOF 5
ENDMDL
MODEL 3
REMARK VINA RESULT:    -8.307      2.831      7.162
REMARK INTER + INTRA:         -11.136
REMARK INTER:                 -10.281
REMARK INTRA:                  -0.855
REMARK UNBOUND:                -0.401
REMARK SMILES CNC(=O)Cn1c(=O)[nH]/c(=N\c2cc3sc(C)nc3cc2C)n(Cc2ccccc2)c1=O
REMARK SMILES IDX 8 1 7 2 9 3 10 4 23 5 11 6 6 7 31 8 32 9 5 11 3 12 2 13 4 14
REMARK SMILES IDX 1 15 24 17 25 18 26 19 30 20 27 21 29 22 28 23 12 24 21 25
REMARK SMILES IDX 13 26 22 27 20 28 14 29 19 30 15 31 18 32 16 33 17 34
REMARK H PARENT 9 10 2 16
REMARK Flexibility Score: inf
ROOT
ATOM      1  O   UNL     1     -20.980  22.370 -30.210  1.00  0.00    -0.248 OA
ATOM      2  C   UNL     1     -20.677  21.272 -29.678  1.00  0.00     0.332 A 
ATOM      3  N   UNL     1     -20.092  21.282 -28.474  1.00  0.00    -0.277 N 
ATOM      4  C   UNL     1     -19.755  20.101 -27.884  1.00  0.00     0.215 A 
ATOM      5  N   UNL     1     -19.988  18.908 -28.463  1.00  0.00    -0.259 N 
ATOM      6  N   UNL     1     -19.208  20.189 -26.743  1.00  0.00    -0.214 NA
ATOM      7  N   UNL     1     -20.914  20.077 -30.265  1.00  0.00    -0.236 N 
ATOM      8  C   UNL     1     -20.577  18.903 -29.673  1.00  0.00     0.335 A 
ATOM      9  O   UNL     1     -20.846  17.854 -30.312  1.00  0.00    -0.247 OA
ATOM     10  H   UNL     1     -19.895  22.199 -27.993  1.00  0.00     0.175 HD
ENDROOT
BRANCH   7  11
ATOM     11  C   UNL     1     -21.543  20.062 -31.560  1.00  0.00     0.232 C 
BRANCH  11  12
ATOM     12  C   UNL     1     -22.991  19.751 -31.431  1.00  0.00     0.240 C 
ATOM     13  N   UNL     1     -23.465  18.472 -31.837  1.00  0.00    -0.358 N 
ATOM     14  O   UNL     1     -23.767  20.630 -30.964  1.00  0.00    -0.273 OA
ATOM     15  C   UNL     1     -24.871  18.169 -31.713  1.00  0.00     0.142 C 
ATOM     16  H   UNL     1     -22.762  17.791 -32.217  1.00  0.00     0.163 HD
ENDBRANCH  11  12
ENDBRANCH   7  11
BRANCH   5  17
ATOM     17  C   UNL     1     -19.631  17.658 -27.833  1.00  0.00     0.166 C 
BRANCH  17  18
ATOM     18  C   UNL     1     -20.756  16.892 -27.294  1.00  0.00    -0.028 A 
ATOM     19  C   UNL     1     -21.695  17.454 -26.439  1.00  0.00     0.005 A 
ATOM     20  C   UNL     1     -20.934  15.565 -27.617  1.00  0.00     0.005 A 
ATOM     21  C   UNL     1     -22.761  16.710 -25.936  1.00  0.00     0.000 A 
ATOM     22  C   UNL     1     -22.001  14.815 -27.116  1.00  0.00     0.000 A 
ATOM     23  C   UNL     1     -22.927  15.382 -26.268  1.00  0.00     0.000 A 
ENDBRANCH  17  18
ENDBRANCH   5  17
BRANCH   6  24
ATOM     24  C   UNL     1     -18.919  21.370 -26.041  1.00  0.00     0.071 A 
ATOM     25  C   UNL     1     -17.751  22.065 -26.203  1.00  0.00    -0.023 A 
ATOM     26  C   UNL     1     -19.832  21.871 -25.147  1.00  0.00     0.050 A 
ATOM     27  C   UNL     1     -16.719  21.574 -27.158  1.00  0.00     0.047 C 
ATOM     28  C   UNL     1     -17.467  23.219 -25.519  1.00  0.00     0.035 A 
ATOM     29  C   UNL     1     -19.565  23.052 -24.431  1.00  0.00     0.057 A 
ATOM     30  C   UNL     1     -18.394  23.745 -24.597  1.00  0.00     0.082 A 
ATOM     31  S   UNL     1     -20.371  24.008 -23.265  1.00  0.00    -0.119 S 
ATOM     32  N   UNL     1     -18.240  24.828 -23.889  1.00  0.00    -0.242 NA
ATOM     33  C   UNL     1     -19.184  25.221 -23.057  1.00  0.00     0.091 A 
ATOM     34  C   UNL     1     -19.201  26.431 -22.156  1.00  0.00     0.079 C 
ENDBRANCH   6  24
TORSDOF 5
ENDMDL
MODEL 4
REMARK VINA RESULT:    -8.113      4.064      7.107
REMARK INTER + INTRA:         -10.886
REMARK INTER:                 -10.675
REMARK INTRA:                  -0.210
REMARK UNBOUND:                -0.401
REMARK SMILES CNC(=O)Cn1c(=O)[nH]/c(=N\c2cc3sc(C)nc3cc2C)n(Cc2ccccc2)c1=O
REMARK SMILES IDX 8 1 7 2 9 3 10 4 23 5 11 6 6 7 31 8 32 9 5 11 3 12 2 13 4 14
REMARK SMILES IDX 1 15 24 17 25 18 26 19 30 20 27 21 29 22 28 23 12 24 21 25
REMARK SMILES IDX 13 26 22 27 20 28 14 29 19 30 15 31 18 32 16 33 17 34
REMARK H PARENT 9 10 2 16
REMARK Flexibility Score: inf
ROOT
ATOM      1  O   UNL     1     -20.631  19.901 -24.854  1.00  0.00    -0.248 OA
ATOM      2  C   UNL     1     -20.390  18.868 -25.528  1.00  0.00     0.332 A 
ATOM      3  N   UNL     1     -20.563  17.672 -24.953  1.00  0.00    -0.277 N 
ATOM      4  C   UNL     1     -20.305  16.542 -25.670  1.00  0.00     0.215 A 
ATOM      5  N   UNL     1     -19.880  16.573 -26.946  1.00  0.00    -0.259 N 
ATOM      6  N   UNL     1     -20.495  15.446 -25.060  1.00  0.00    -0.214 NA
ATOM      7  N   UNL     1     -19.963  18.907 -26.811  1.00  0.00    -0.236 N 
ATOM      8  C   UNL     1     -19.708  17.778 -27.520  1.00  0.00     0.335 A 
ATOM      9  O   UNL     1     -19.316  17.936 -28.705  1.00  0.00    -0.247 OA
ATOM     10  H   UNL     1     -20.895  17.612 -23.955  1.00  0.00     0.175 HD
ENDROOT
BRANCH   7  11
ATOM     11  C   UNL     1     -19.776  20.192 -27.433  1.00  0.00     0.232 C 
BRANCH  11  12
ATOM     12  C   UNL     1     -18.686  20.944 -26.757  1.00  0.00     0.240 C 
ATOM     13  N   UNL     1     -18.963  22.229 -26.215  1.00  0.00    -0.358 N 
ATOM     14  O   UNL     1     -17.539  20.423 -26.681  1.00  0.00    -0.273 OA
ATOM     15  C   UNL     1     -17.904  22.961 -25.559  1.00  0.00     0.142 C 
ATOM     16  H   UNL     1     -19.940  22.600 -26.316  1.00  0.00     0.163 HD
ENDBRANCH  11  12
ENDBRANCH   7  11
BRANCH   5  17
ATOM     17  C   UNL     1     -19.610  15.373 -27.703  1.00  0.00     0.166 C 
BRANCH  17  18
ATOM     18  C   UNL     1     -20.763  14.808 -28.403  1.00  0.00    -0.028 A 
ATOM     19  C   UNL     1     -21.290  15.385 -29.552  1.00  0.00     0.005 A 
ATOM     20  C   UNL     1     -21.384  13.665 -27.950  1.00  0.00     0.005 A 
ATOM     21  C   UNL     1     -22.389  14.833 -30.207  1.00  0.00     0.000 A 
ATOM     22  C   UNL     1     -22.485  13.108 -28.604  1.00  0.00     0.000 A 
ATOM     23  C   UNL     1     -23.000  13.689 -29.742  1.00  0.00     0.000 A 
ENDBRANCH  17  18
ENDBRANCH   5  17
BRANCH   6  24
ATOM     24  C   UNL     1     -20.937  15.288 -23.738  1.00  0.00     0.071 A 
ATOM     25  C   UNL     1     -20.318  14.462 -22.839  1.00  0.00    -0.023 A 
ATOM     26  C   UNL     1     -22.037  15.982 -23.301  1.00  0.00     0.050 A 
ATOM     27  C   UNL     1     -19.119  13.680 -23.251  1.00  0.00     0.047 C 
ATOM     28  C   UNL     1     -20.748  14.307 -21.547  1.00  0.00     0.035 A 
ATOM     29  C   UNL     1     -22.500  15.841 -21.979  1.00  0.00     0.057 A 
ATOM     30  C   UNL     1     -21.876  15.012 -21.083  1.00  0.00     0.082 A 
ATOM     31  S   UNL     1     -23.774  16.477 -21.033  1.00  0.00    -0.119 S 
ATOM     32  N   UNL     1     -22.380  14.948 -19.883  1.00  0.00    -0.242 NA
ATOM     33  C   UNL     1     -23.444  15.661 -19.568  1.00  0.00     0.091 A 
ATOM     34  C   UNL     1     -24.174  15.729 -18.250  1.00  0.00     0.079 C 
ENDBRANCH   6  24
TORSDOF 5
ENDMDL
MODEL 5
REMARK VINA RESULT:    -8.094      2.338      5.592
REMARK INTER + INTRA:         -10.860
REMARK INTER:                 -10.140
REMARK INTRA:                  -0.720
REMARK UNBOUND:                -0.401
REMARK SMILES CNC(=O)Cn1c(=O)[nH]/c(=N\c2cc3sc(C)nc3cc2C)n(Cc2ccccc2)c1=O
REMARK SMILES IDX 8 1 7 2 9 3 10 4 23 5 11 6 6 7 31 8 32 9 5 11 3 12 2 13 4 14
REMARK SMILES IDX 1 15 24 17 25 18 26 19 30 20 27 21 29 22 28 23 12 24 21 25
REMARK SMILES IDX 13 26 22 27 20 28 14 29 19 30 15 31 18 32 16 33 17 34
REMARK H PARENT 9 10 2 16
REMARK Flexibility Score: inf
ROOT
ATOM      1  O   UNL     1     -21.402  15.655 -30.396  1.00  0.00    -0.248 OA
ATOM      2  C   UNL     1     -21.227  16.346 -29.361  1.00  0.00     0.332 A 
ATOM      3  N   UNL     1     -21.612  17.628 -29.372  1.00  0.00    -0.277 N 
ATOM      4  C   UNL     1     -21.427  18.391 -28.258  1.00  0.00     0.215 A 
ATOM      5  N   UNL     1     -20.870  17.909 -27.132  1.00  0.00    -0.259 N 
ATOM      6  N   UNL     1     -21.819  19.594 -28.342  1.00  0.00    -0.214 NA
ATOM      7  N   UNL     1     -20.667  15.854 -28.232  1.00  0.00    -0.236 N 
ATOM      8  C   UNL     1     -20.486  16.619 -27.126  1.00  0.00     0.335 A 
ATOM      9  O   UNL     1     -19.955  16.055 -26.134  1.00  0.00    -0.247 OA
ATOM     10  H   UNL     1     -22.051  18.037 -30.238  1.00  0.00     0.175 HD
ENDROOT
BRANCH   7  11
ATOM     11  C   UNL     1     -20.252  14.476 -28.216  1.00  0.00     0.232 C 
BRANCH  11  12
ATOM     12  C   UNL     1     -21.432  13.576 -28.308  1.00  0.00     0.240 C 
ATOM     13  N   UNL     1     -21.588  12.751 -29.456  1.00  0.00    -0.358 N 
ATOM     14  O   UNL     1     -22.269  13.566 -27.363  1.00  0.00    -0.273 OA
ATOM     15  C   UNL     1     -22.734  11.877 -29.546  1.00  0.00     0.142 C 
ATOM     16  H   UNL     1     -20.852  12.812 -30.203  1.00  0.00     0.163 HD
ENDBRANCH  11  12
ENDBRANCH   7  11
BRANCH   5  17
ATOM     17  C   UNL     1     -20.679  18.720 -25.952  1.00  0.00     0.166 C 
BRANCH  17  18
ATOM     18  C   UNL     1     -19.687  19.787 -26.088  1.00  0.00    -0.028 A 
ATOM     19  C   UNL     1     -18.532  19.636 -26.846  1.00  0.00     0.005 A 
ATOM     20  C   UNL     1     -19.857  21.003 -25.463  1.00  0.00     0.005 A 
ATOM     21  C   UNL     1     -17.599  20.664 -26.965  1.00  0.00     0.000 A 
ATOM     22  C   UNL     1     -18.924  22.036 -25.580  1.00  0.00     0.000 A 
ATOM     23  C   UNL     1     -17.783  21.875 -26.334  1.00  0.00     0.000 A 
ENDBRANCH  17  18
ENDBRANCH   5  17
BRANCH   6  24
ATOM     24  C   UNL     1     -22.414  20.206 -29.456  1.00  0.00     0.071 A 
ATOM     25  C   UNL     1     -21.802  21.195 -30.177  1.00  0.00    -0.023 A 
ATOM     26  C   UNL     1     -23.665  19.813 -29.861  1.00  0.00     0.050 A 
ATOM     27  C   UNL     1     -20.444  21.668 -29.789  1.00  0.00     0.047 C 
ATOM     28  C   UNL     1     -22.381  21.794 -31.266  1.00  0.00     0.035 A 
ATOM     29  C   UNL     1     -24.283  20.412 -30.974  1.00  0.00     0.057 A 
ATOM     30  C   UNL     1     -23.666  21.402 -31.693  1.00  0.00     0.082 A 
ATOM     31  S   UNL     1     -25.767  20.252 -31.808  1.00  0.00    -0.119 S 
ATOM     32  N   UNL     1     -24.319  21.894 -32.708  1.00  0.00    -0.242 NA
ATOM     33  C   UNL     1     -25.520  21.442 -33.011  1.00  0.00     0.091 A 
ATOM     34  C   UNL     1     -26.432  21.872 -34.132  1.00  0.00     0.079 C 
ENDBRANCH   6  24
TORSDOF 5
ENDMDL
