MODEL 1
REMARK VINA RESULT:    -8.431      0.000      0.000
REMARK INTER + INTRA:         -11.692
REMARK INTER:                 -11.051
REMARK INTRA:                  -0.640
REMARK UNBOUND:                -0.796
REMARK SMILES CNC(=O)Cn1c(=O)[nH]/c(=N\c2cc3sc(C)nc3cc2C)n(Cc2ccccc2F)c1=O
REMARK SMILES IDX 8 1 7 2 9 3 10 4 23 5 11 6 6 7 32 8 33 9 5 11 3 12 2 13 4 14
REMARK SMILES IDX 1 15 24 17 25 18 30 19 26 20 31 21 29 22 27 23 28 24 12 25
REMARK SMILES IDX 21 26 13 27 22 28 20 29 14 30 19 31 15 32 18 33 16 34 17 35
REMARK H PARENT 9 10 2 16
REMARK Flexibility Score: inf
ROOT
ATOM      1  O   UNL     1     -20.577  18.090 -21.558  1.00  0.00    -0.248 OA
ATOM      2  C   UNL     1     -20.962  17.848 -22.744  1.00  0.00     0.332 A 
ATOM      3  N   UNL     1     -20.664  18.713 -23.715  1.00  0.00    -0.277 N 
ATOM      4  C   UNL     1     -21.065  18.474 -24.987  1.00  0.00     0.216 A 
ATOM      5  N   UNL     1     -21.761  17.389 -25.334  1.00  0.00    -0.259 N 
ATOM      6  N   UNL     1     -20.768  19.362 -25.842  1.00  0.00    -0.214 NA
ATOM      7  N   UNL     1     -21.661  16.755 -23.071  1.00  0.00    -0.236 N 
ATOM      8  C   UNL     1     -22.063  16.509 -24.333  1.00  0.00     0.335 A 
ATOM      9  O   UNL     1     -22.715  15.453 -24.541  1.00  0.00    -0.247 OA
ATOM     10  H   UNL     1     -20.120  19.577 -23.491  1.00  0.00     0.175 HD
ENDROOT
BRANCH   7  11
ATOM     11  C   UNL     1     -21.983  15.817 -22.026  1.00  0.00     0.232 C 
BRANCH  11  12
ATOM     12  C   UNL     1     -20.983  14.721 -21.954  1.00  0.00     0.240 C 
ATOM     13  N   UNL     1     -19.591  15.004 -21.938  1.00  0.00    -0.358 N 
ATOM     14  O   UNL     1     -21.406  13.542 -21.908  1.00  0.00    -0.273 OA
ATOM     15  C   UNL     1     -18.596  13.955 -21.869  1.00  0.00     0.142 C 
ATOM     16  H   UNL     1     -19.333  16.021 -21.981  1.00  0.00     0.163 HD
ENDBRANCH  11  12
ENDBRANCH   7  11
BRANCH   5  17
ATOM     17  C   UNL     1     -22.180  17.070 -26.672  1.00  0.00     0.169 C 
BRANCH  17  18
ATOM     18  C   UNL     1     -21.442  16.032 -27.366  1.00  0.00     0.008 A 
ATOM     19  C   UNL     1     -21.917  14.787 -27.615  1.00  0.00     0.128 A 
ATOM     20  C   UNL     1     -20.152  16.328 -27.823  1.00  0.00     0.008 A 
ATOM     21  F   UNL     1     -23.130  14.344 -27.220  1.00  0.00    -0.207 F 
ATOM     22  C   UNL     1     -21.158  13.830 -28.304  1.00  0.00     0.039 A 
ATOM     23  C   UNL     1     -19.375  15.415 -28.503  1.00  0.00     0.001 A 
ATOM     24  C   UNL     1     -19.915  14.170 -28.726  1.00  0.00     0.003 A 
ENDBRANCH  17  18
ENDBRANCH   5  17
BRANCH   6  25
ATOM     25  C   UNL     1     -20.064  20.565 -25.592  1.00  0.00     0.071 A 
ATOM     26  C   UNL     1     -18.868  20.853 -26.210  1.00  0.00    -0.023 A 
ATOM     27  C   UNL     1     -20.554  21.501 -24.708  1.00  0.00     0.050 A 
ATOM     28  C   UNL     1     -18.276  19.856 -27.196  1.00  0.00     0.047 C 
ATOM     29  C   UNL     1     -18.189  22.007 -25.969  1.00  0.00     0.035 A 
ATOM     30  C   UNL     1     -19.856  22.691 -24.458  1.00  0.00     0.057 A 
ATOM     31  C   UNL     1     -18.668  22.976 -25.074  1.00  0.00     0.082 A 
ATOM     32  S   UNL     1     -20.075  24.083 -23.481  1.00  0.00    -0.119 S 
ATOM     33  N   UNL     1     -18.093  24.103 -24.779  1.00  0.00    -0.242 NA
ATOM     34  C   UNL     1     -18.655  24.927 -23.914  1.00  0.00     0.091 A 
ATOM     35  C   UNL     1     -18.160  26.270 -23.438  1.00  0.00     0.079 C 
ENDBRANCH   6  25
TORSDOF 5
ENDMDL
MODEL 2
REMARK VINA RESULT:    -8.412      4.659      7.161
REMARK INTER + INTRA:         -11.667
REMARK INTER:                 -10.918
REMARK INTRA:                  -0.749
REMARK UNBOUND:                -0.796
REMARK SMILES CNC(=O)Cn1c(=O)[nH]/c(=N\c2cc3sc(C)nc3cc2C)n(Cc2ccccc2F)c1=O
REMARK SMILES IDX 8 1 7 2 9 3 10 4 23 5 11 6 6 7 32 8 33 9 5 11 3 12 2 13 4 14
REMARK SMILES IDX 1 15 24 17 25 18 30 19 26 20 31 21 29 22 27 23 28 24 12 25
REMARK SMILES IDX 21 26 13 27 22 28 20 29 14 30 19 31 15 32 18 33 16 34 17 35
REMARK H PARENT 9 10 2 16
REMARK Flexibility Score: inf
ROOT
ATOM      1  O   UNL     1     -19.588  21.456 -28.969  1.00  0.00    -0.248 OA
ATOM      2  C   UNL     1     -19.926  20.382 -28.381  1.00  0.00     0.332 A 
ATOM      3  N   UNL     1     -20.956  19.678 -28.852  1.00  0.00    -0.277 N 
ATOM      4  C   UNL     1     -21.334  18.529 -28.239  1.00  0.00     0.216 A 
ATOM      5  N   UNL     1     -20.714  18.049 -27.160  1.00  0.00    -0.259 N 
ATOM      6  N   UNL     1     -22.342  17.939 -28.732  1.00  0.00    -0.214 NA
ATOM      7  N   UNL     1     -19.292  19.918 -27.298  1.00  0.00    -0.236 N 
ATOM      8  C   UNL     1     -19.660  18.777 -26.683  1.00  0.00     0.335 A 
ATOM      9  O   UNL     1     -19.002  18.423 -25.671  1.00  0.00    -0.247 OA
ATOM     10  H   UNL     1     -21.472  20.015 -29.696  1.00  0.00     0.175 HD
ENDROOT
BRANCH   7  11
ATOM     11  C   UNL     1     -18.178  20.673 -26.787  1.00  0.00     0.232 C 
BRANCH  11  12
ATOM     12  C   UNL     1     -18.633  21.812 -25.949  1.00  0.00     0.240 C 
ATOM     13  N   UNL     1     -19.477  21.600 -24.826  1.00  0.00    -0.358 N 
ATOM     14  O   UNL     1     -18.250  22.963 -26.263  1.00  0.00    -0.273 OA
ATOM     15  C   UNL     1     -19.936  22.691 -23.994  1.00  0.00     0.142 C 
ATOM     16  H   UNL     1     -19.746  20.601 -24.641  1.00  0.00     0.163 HD
ENDBRANCH  11  12
ENDBRANCH   7  11
BRANCH   5  17
ATOM     17  C   UNL     1     -21.051  16.819 -26.493  1.00  0.00     0.169 C 
BRANCH  17  18
ATOM     18  C   UNL     1     -21.106  15.620 -27.307  1.00  0.00     0.008 A 
ATOM     19  C   UNL     1     -20.141  15.238 -28.180  1.00  0.00     0.128 A 
ATOM     20  C   UNL     1     -22.225  14.787 -27.184  1.00  0.00     0.008 A 
ATOM     21  F   UNL     1     -19.016  15.944 -28.424  1.00  0.00    -0.207 F 
ATOM     22  C   UNL     1     -20.248  14.058 -28.929  1.00  0.00     0.039 A 
ATOM     23  C   UNL     1     -22.365  13.620 -27.904  1.00  0.00     0.001 A 
ATOM     24  C   UNL     1     -21.351  13.286 -28.770  1.00  0.00     0.003 A 
ENDBRANCH  17  18
ENDBRANCH   5  17
BRANCH   6  25
ATOM     25  C   UNL     1     -23.100  18.365 -29.850  1.00  0.00     0.071 A 
ATOM     26  C   UNL     1     -23.212  17.601 -30.990  1.00  0.00    -0.023 A 
ATOM     27  C   UNL     1     -23.757  19.576 -29.840  1.00  0.00     0.050 A 
ATOM     28  C   UNL     1     -22.507  16.255 -31.060  1.00  0.00     0.047 C 
ATOM     29  C   UNL     1     -23.937  18.010 -32.066  1.00  0.00     0.035 A 
ATOM     30  C   UNL     1     -24.505  19.999 -30.948  1.00  0.00     0.057 A 
ATOM     31  C   UNL     1     -24.616  19.238 -32.079  1.00  0.00     0.082 A 
ATOM     32  S   UNL     1     -25.448  21.369 -31.366  1.00  0.00    -0.119 S 
ATOM     33  N   UNL     1     -25.330  19.712 -33.056  1.00  0.00    -0.242 NA
ATOM     34  C   UNL     1     -25.917  20.888 -32.937  1.00  0.00     0.091 A 
ATOM     35  C   UNL     1     -26.779  21.614 -33.939  1.00  0.00     0.079 C 
ENDBRANCH   6  25
TORSDOF 5
ENDMDL
MODEL 3
REMARK VINA RESULT:    -8.336      3.687      5.752
REMARK INTER + INTRA:         -11.569
REMARK INTER:                 -10.584
REMARK INTRA:                  -0.985
REMARK UNBOUND:                -0.796
REMARK SMILES CNC(=O)Cn1c(=O)[nH]/c(=N\c2cc3sc(C)nc3cc2C)n(Cc2ccccc2F)c1=O
REMARK SMILES IDX 8 1 7 2 9 3 10 4 23 5 11 6 6 7 32 8 33 9 5 11 3 12 2 13 4 14
REMARK SMILES IDX 1 15 24 17 25 18 30 19 26 20 31 21 29 22 27 23 28 24 12 25
REMARK SMILES IDX 21 26 13 27 22 28 20 29 14 30 19 31 15 32 18 33 16 34 17 35
REMARK H PARENT 9 10 2 16
REMARK Flexibility Score: inf
ROOT
ATOM      1  O   UNL     1     -21.194  22.427 -30.138  1.00  0.00    -0.248 OA
ATOM      2  C   UNL     1     -20.836  21.311 -29.649  1.00  0.00     0.332 A 
ATOM      3  N   UNL     1     -20.220  21.285 -28.466  1.00  0.00    -0.277 N 
ATOM      4  C   UNL     1     -19.830  20.104 -27.926  1.00  0.00     0.216 A 
ATOM      5  N   UNL     1     -20.034  18.932 -28.529  1.00  0.00    -0.259 N 
ATOM      6  N   UNL     1     -19.223  20.173 -26.815  1.00  0.00    -0.214 NA
ATOM      7  N   UNL     1     -21.049  20.145 -30.270  1.00  0.00    -0.236 N 
ATOM      8  C   UNL     1     -20.665  18.967 -29.741  1.00  0.00     0.335 A 
ATOM      9  O   UNL     1     -20.910  17.925 -30.401  1.00  0.00    -0.247 OA
ATOM     10  H   UNL     1     -20.039  22.179 -27.956  1.00  0.00     0.175 HD
ENDROOT
BRANCH   7  11
ATOM     11  C   UNL     1     -21.716  20.167 -31.547  1.00  0.00     0.232 C 
BRANCH  11  12
ATOM     12  C   UNL     1     -23.146  19.788 -31.418  1.00  0.00     0.240 C 
ATOM     13  N   UNL     1     -23.606  18.518 -31.858  1.00  0.00    -0.358 N 
ATOM     14  O   UNL     1     -23.932  20.622 -30.911  1.00  0.00    -0.273 OA
ATOM     15  C   UNL     1     -24.994  18.123 -31.745  1.00  0.00     0.142 C 
ATOM     16  H   UNL     1     -22.874  17.886 -32.269  1.00  0.00     0.163 HD
ENDBRANCH  11  12
ENDBRANCH   7  11
BRANCH   5  17
ATOM     17  C   UNL     1     -19.673  17.650 -27.985  1.00  0.00     0.169 C 
BRANCH  17  18
ATOM     18  C   UNL     1     -20.737  16.859 -27.396  1.00  0.00     0.008 A 
ATOM     19  C   UNL     1     -21.182  15.678 -27.893  1.00  0.00     0.128 A 
ATOM     20  C   UNL     1     -21.346  17.333 -26.227  1.00  0.00     0.008 A 
ATOM     21  F   UNL     1     -20.710  15.103 -29.019  1.00  0.00    -0.207 F 
ATOM     22  C   UNL     1     -22.206  14.953 -27.267  1.00  0.00     0.039 A 
ATOM     23  C   UNL     1     -22.356  16.649 -25.585  1.00  0.00     0.001 A 
ATOM     24  C   UNL     1     -22.761  15.456 -26.137  1.00  0.00     0.003 A 
ENDBRANCH  17  18
ENDBRANCH   5  17
BRANCH   6  25
ATOM     25  C   UNL     1     -18.920  21.354 -26.096  1.00  0.00     0.071 A 
ATOM     26  C   UNL     1     -17.730  22.026 -26.263  1.00  0.00    -0.023 A 
ATOM     27  C   UNL     1     -19.814  21.880 -25.188  1.00  0.00     0.050 A 
ATOM     28  C   UNL     1     -16.702  21.492 -27.250  1.00  0.00     0.047 C 
ATOM     29  C   UNL     1     -17.435  23.159 -25.571  1.00  0.00     0.035 A 
ATOM     30  C   UNL     1     -19.512  23.048 -24.473  1.00  0.00     0.057 A 
ATOM     31  C   UNL     1     -18.329  23.714 -24.642  1.00  0.00     0.082 A 
ATOM     32  S   UNL     1     -20.287  24.022 -23.294  1.00  0.00    -0.119 S 
ATOM     33  N   UNL     1     -18.138  24.788 -23.936  1.00  0.00    -0.242 NA
ATOM     34  C   UNL     1     -19.067  25.201 -23.094  1.00  0.00     0.091 A 
ATOM     35  C   UNL     1     -19.046  26.407 -22.189  1.00  0.00     0.079 C 
ENDBRANCH   6  25
TORSDOF 5
ENDMDL
MODEL 4
REMARK VINA RESULT:    -8.085      2.961      6.699
REMARK INTER + INTRA:         -11.245
REMARK INTER:                 -10.919
REMARK INTRA:                  -0.325
REMARK UNBOUND:                -0.796
REMARK SMILES CNC(=O)Cn1c(=O)[nH]/c(=N\c2cc3sc(C)nc3cc2C)n(Cc2ccccc2F)c1=O
REMARK SMILES IDX 8 1 7 2 9 3 10 4 23 5 11 6 6 7 32 8 33 9 5 11 3 12 2 13 4 14
REMARK SMILES IDX 1 15 24 17 25 18 30 19 26 20 31 21 29 22 27 23 28 24 12 25
REMARK SMILES IDX 21 26 13 27 22 28 20 29 14 30 19 31 15 32 18 33 16 34 17 35
REMARK H PARENT 9 10 2 16
REMARK Flexibility Score: inf
ROOT
ATOM      1  O   UNL     1     -20.781  20.030 -25.001  1.00  0.00    -0.248 OA
ATOM      2  C   UNL     1     -20.512  18.991 -25.680  1.00  0.00     0.332 A 
ATOM      3  N   UNL     1     -20.677  17.789 -25.124  1.00  0.00    -0.277 N 
ATOM      4  C   UNL     1     -20.396  16.667 -25.831  1.00  0.00     0.216 A 
ATOM      5  N   UNL     1     -19.953  16.697 -27.089  1.00  0.00    -0.259 N 
ATOM      6  N   UNL     1     -20.549  15.568 -25.217  1.00  0.00    -0.214 NA
ATOM      7  N   UNL     1     -20.067  19.042 -26.941  1.00  0.00    -0.236 N 
ATOM      8  C   UNL     1     -19.786  17.932 -27.651  1.00  0.00     0.335 A 
ATOM      9  O   UNL     1     -19.372  18.084 -28.829  1.00  0.00    -0.247 OA
ATOM     10  H   UNL     1     -21.023  17.715 -24.141  1.00  0.00     0.175 HD
ENDROOT
BRANCH   7  11
ATOM     11  C   UNL     1     -19.890  20.337 -27.546  1.00  0.00     0.232 C 
BRANCH  11  12
ATOM     12  C   UNL     1     -18.764  21.078 -26.922  1.00  0.00     0.240 C 
ATOM     13  N   UNL     1     -18.992  22.285 -26.207  1.00  0.00    -0.358 N 
ATOM     14  O   UNL     1     -17.609  20.607 -27.045  1.00  0.00    -0.273 OA
ATOM     15  C   UNL     1     -17.914  23.027 -25.590  1.00  0.00     0.142 C 
ATOM     16  H   UNL     1     -19.993  22.601 -26.157  1.00  0.00     0.163 HD
ENDBRANCH  11  12
ENDBRANCH   7  11
BRANCH   5  17
ATOM     17  C   UNL     1     -19.674  15.538 -27.894  1.00  0.00     0.169 C 
BRANCH  17  18
ATOM     18  C   UNL     1     -20.805  14.884 -28.524  1.00  0.00     0.008 A 
ATOM     19  C   UNL     1     -21.460  15.360 -29.611  1.00  0.00     0.128 A 
ATOM     20  C   UNL     1     -21.253  13.671 -27.987  1.00  0.00     0.008 A 
ATOM     21  F   UNL     1     -21.161  16.523 -30.229  1.00  0.00    -0.207 F 
ATOM     22  C   UNL     1     -22.540  14.672 -30.183  1.00  0.00     0.039 A 
ATOM     23  C   UNL     1     -22.310  12.966 -28.520  1.00  0.00     0.001 A 
ATOM     24  C   UNL     1     -22.932  13.500 -29.625  1.00  0.00     0.003 A 
ENDBRANCH  17  18
ENDBRANCH   5  17
BRANCH   6  25
ATOM     25  C   UNL     1     -20.981  15.408 -23.878  1.00  0.00     0.071 A 
ATOM     26  C   UNL     1     -20.359  14.541 -23.008  1.00  0.00    -0.023 A 
ATOM     27  C   UNL     1     -22.056  16.120 -23.390  1.00  0.00     0.050 A 
ATOM     28  C   UNL     1     -19.168  13.726 -23.490  1.00  0.00     0.047 C 
ATOM     29  C   UNL     1     -20.774  14.384 -21.723  1.00  0.00     0.035 A 
ATOM     30  C   UNL     1     -22.486  15.960 -22.066  1.00  0.00     0.057 A 
ATOM     31  C   UNL     1     -21.865  15.098 -21.203  1.00  0.00     0.082 A 
ATOM     32  S   UNL     1     -23.721  16.608 -21.070  1.00  0.00    -0.119 S 
ATOM     33  N   UNL     1     -22.334  15.016 -19.994  1.00  0.00    -0.242 NA
ATOM     34  C   UNL     1     -23.372  15.748 -19.636  1.00  0.00     0.091 A 
ATOM     35  C   UNL     1     -24.066  15.803 -18.297  1.00  0.00     0.079 C 
ENDBRANCH   6  25
TORSDOF 5
ENDMDL
MODEL 5
REMARK VINA RESULT:    -8.069      3.268      4.173
REMARK INTER + INTRA:         -11.224
REMARK INTER:                 -10.437
REMARK INTRA:                  -0.787
REMARK UNBOUND:                -0.796
REMARK SMILES CNC(=O)Cn1c(=O)[nH]/c(=N\c2cc3sc(C)nc3cc2C)n(Cc2ccccc2F)c1=O
REMARK SMILES IDX 8 1 7 2 9 3 10 4 23 5 11 6 6 7 32 8 33 9 5 11 3 12 2 13 4 14
REMARK SMILES IDX 1 15 24 17 25 18 30 19 26 20 31 21 29 22 27 23 28 24 12 25
REMARK SMILES IDX 21 26 13 27 22 28 20 29 14 30 19 31 15 32 18 33 16 34 17 35
REMARK H PARENT 9 10 2 16
REMARK Flexibility Score: inf
ROOT
ATOM      1  O   UNL     1     -22.811  19.132 -23.807  1.00  0.00    -0.248 OA
ATOM      2  C   UNL     1     -22.188  18.161 -24.337  1.00  0.00     0.332 A 
ATOM      3  N   UNL     1     -21.608  18.331 -25.527  1.00  0.00    -0.277 N 
ATOM      4  C   UNL     1     -20.938  17.308 -26.111  1.00  0.00     0.216 A 
ATOM      5  N   UNL     1     -20.821  16.105 -25.546  1.00  0.00    -0.259 N 
ATOM      6  N   UNL     1     -20.445  17.545 -27.255  1.00  0.00    -0.214 NA
ATOM      7  N   UNL     1     -22.083  16.961 -23.755  1.00  0.00    -0.236 N 
ATOM      8  C   UNL     1     -21.419  15.939 -24.328  1.00  0.00     0.335 A 
ATOM      9  O   UNL     1     -21.376  14.848 -23.702  1.00  0.00    -0.247 OA
ATOM     10  H   UNL     1     -21.673  19.257 -26.007  1.00  0.00     0.175 HD
ENDROOT
BRANCH   7  11
ATOM     11  C   UNL     1     -22.706  16.773 -22.470  1.00  0.00     0.232 C 
BRANCH  11  12
ATOM     12  C   UNL     1     -21.896  17.379 -21.382  1.00  0.00     0.240 C 
ATOM     13  N   UNL     1     -22.330  18.559 -20.720  1.00  0.00    -0.358 N 
ATOM     14  O   UNL     1     -20.821  16.817 -21.066  1.00  0.00    -0.273 OA
ATOM     15  C   UNL     1     -21.561  19.170 -19.657  1.00  0.00     0.142 C 
ATOM     16  H   UNL     1     -23.244  18.957 -21.053  1.00  0.00     0.163 HD
ENDBRANCH  11  12
ENDBRANCH   7  11
BRANCH   5  17
ATOM     17  C   UNL     1     -20.093  14.998 -26.105  1.00  0.00     0.169 C 
BRANCH  17  18
ATOM     18  C   UNL     1     -20.692  14.317 -27.237  1.00  0.00     0.008 A 
ATOM     19  C   UNL     1     -20.020  13.948 -28.356  1.00  0.00     0.128 A 
ATOM     20  C   UNL     1     -22.055  14.004 -27.176  1.00  0.00     0.008 A 
ATOM     21  F   UNL     1     -18.711  14.197 -28.572  1.00  0.00    -0.207 F 
ATOM     22  C   UNL     1     -20.655  13.278 -29.411  1.00  0.00     0.039 A 
ATOM     23  C   UNL     1     -22.714  13.347 -28.193  1.00  0.00     0.001 A 
ATOM     24  C   UNL     1     -21.977  12.998 -29.301  1.00  0.00     0.003 A 
ENDBRANCH  17  18
ENDBRANCH   5  17
BRANCH   6  25
ATOM     25  C   UNL     1     -20.529  18.765 -27.968  1.00  0.00     0.071 A 
ATOM     26  C   UNL     1     -19.671  19.814 -27.726  1.00  0.00    -0.023 A 
ATOM     27  C   UNL     1     -21.487  18.952 -28.941  1.00  0.00     0.050 A 
ATOM     28  C   UNL     1     -18.593  19.667 -26.661  1.00  0.00     0.047 C 
ATOM     29  C   UNL     1     -19.751  20.988 -28.408  1.00  0.00     0.035 A 
ATOM     30  C   UNL     1     -21.572  20.162 -29.646  1.00  0.00     0.057 A 
ATOM     31  C   UNL     1     -20.717  21.202 -29.403  1.00  0.00     0.082 A 
ATOM     32  S   UNL     1     -22.559  20.814 -30.886  1.00  0.00    -0.119 S 
ATOM     33  N   UNL     1     -20.873  22.284 -30.105  1.00  0.00    -0.242 NA
ATOM     34  C   UNL     1     -21.828  22.352 -31.014  1.00  0.00     0.091 A 
ATOM     35  C   UNL     1     -22.176  23.501 -31.926  1.00  0.00     0.079 C 
ENDBRANCH   6  25
TORSDOF 5
ENDMDL
