MODEL 1
REMARK VINA RESULT:    -8.570      0.000      0.000
REMARK INTER + INTRA:         -11.736
REMARK INTER:                 -11.006
REMARK INTRA:                  -0.730
REMARK UNBOUND:                -0.661
REMARK SMILES CNC(=O)Cn1c(=O)[nH]/c(=N\c2cc3sc(C)nc3cc2C)n(Cc2cccc(F)c2)c1=O
REMARK SMILES IDX 8 1 7 2 9 3 10 4 23 5 11 6 6 7 32 8 33 9 5 11 3 12 2 13 4 14
REMARK SMILES IDX 1 15 24 17 25 18 31 19 26 20 29 21 27 22 30 23 28 24 12 25
REMARK SMILES IDX 21 26 13 27 22 28 20 29 14 30 19 31 15 32 18 33 16 34 17 35
REMARK H PARENT 9 10 2 16
REMARK Flexibility Score: inf
ROOT
ATOM      1  O   UNL     1     -19.592  21.362 -28.890  1.00  0.00    -0.248 OA
ATOM      2  C   UNL     1     -19.989  20.326 -28.266  1.00  0.00     0.332 A 
ATOM      3  N   UNL     1     -21.056  19.626 -28.691  1.00  0.00    -0.277 N 
ATOM      4  C   UNL     1     -21.506  18.514 -28.050  1.00  0.00     0.215 A 
ATOM      5  N   UNL     1     -20.870  18.085 -26.948  1.00  0.00    -0.259 N 
ATOM      6  N   UNL     1     -22.543  17.917 -28.532  1.00  0.00    -0.214 NA
ATOM      7  N   UNL     1     -19.348  19.901 -27.162  1.00  0.00    -0.236 N 
ATOM      8  C   UNL     1     -19.794  18.792 -26.521  1.00  0.00     0.335 A 
ATOM      9  O   UNL     1     -19.183  18.425 -25.505  1.00  0.00    -0.247 OA
ATOM     10  H   UNL     1     -21.576  19.919 -29.535  1.00  0.00     0.175 HD
ENDROOT
BRANCH   7  11
ATOM     11  C   UNL     1     -18.201  20.670 -26.726  1.00  0.00     0.232 C 
BRANCH  11  12
ATOM     12  C   UNL     1     -18.604  21.828 -25.915  1.00  0.00     0.240 C 
ATOM     13  N   UNL     1     -19.404  21.633 -24.758  1.00  0.00    -0.358 N 
ATOM     14  O   UNL     1     -18.261  23.004 -26.212  1.00  0.00    -0.273 OA
ATOM     15  C   UNL     1     -19.815  22.777 -23.940  1.00  0.00     0.142 C 
ATOM     16  H   UNL     1     -19.689  20.665 -24.505  1.00  0.00     0.163 HD
ENDBRANCH  11  12
ENDBRANCH   7  11
BRANCH   5  17
ATOM     17  C   UNL     1     -21.315  16.915 -26.243  1.00  0.00     0.166 C 
BRANCH  17  18
ATOM     18  C   UNL     1     -21.270  15.664 -27.020  1.00  0.00    -0.025 A 
ATOM     19  C   UNL     1     -20.119  15.201 -27.629  1.00  0.00     0.044 A 
ATOM     20  C   UNL     1     -22.399  14.908 -27.153  1.00  0.00     0.006 A 
ATOM     21  C   UNL     1     -20.134  14.022 -28.338  1.00  0.00     0.123 A 
ATOM     22  C   UNL     1     -22.441  13.709 -27.867  1.00  0.00     0.003 A 
ATOM     23  F   UNL     1     -18.999  13.563 -28.941  1.00  0.00    -0.207 F 
ATOM     24  C   UNL     1     -21.281  13.265 -28.468  1.00  0.00     0.039 A 
ENDBRANCH  17  18
ENDBRANCH   5  17
BRANCH   6  25
ATOM     25  C   UNL     1     -23.209  18.385 -29.694  1.00  0.00     0.071 A 
ATOM     26  C   UNL     1     -23.219  17.669 -30.871  1.00  0.00    -0.023 A 
ATOM     27  C   UNL     1     -23.888  19.588 -29.707  1.00  0.00     0.050 A 
ATOM     28  C   UNL     1     -22.469  16.356 -30.829  1.00  0.00     0.047 C 
ATOM     29  C   UNL     1     -23.845  18.092 -31.989  1.00  0.00     0.035 A 
ATOM     30  C   UNL     1     -24.539  20.033 -30.862  1.00  0.00     0.057 A 
ATOM     31  C   UNL     1     -24.541  19.311 -32.026  1.00  0.00     0.082 A 
ATOM     32  S   UNL     1     -25.466  21.403 -31.320  1.00  0.00    -0.119 S 
ATOM     33  N   UNL     1     -25.173  19.807 -33.044  1.00  0.00    -0.242 NA
ATOM     34  C   UNL     1     -25.790  20.971 -32.943  1.00  0.00     0.091 A 
ATOM     35  C   UNL     1     -26.572  21.734 -33.965  1.00  0.00     0.079 C 
ENDBRANCH   6  25
TORSDOF 5
ENDMDL
MODEL 2
REMARK VINA RESULT:    -8.566      4.476      7.010
REMARK INTER + INTRA:         -11.731
REMARK INTER:                 -11.131
REMARK INTRA:                  -0.600
REMARK UNBOUND:                -0.661
REMARK SMILES CNC(=O)Cn1c(=O)[nH]/c(=N\c2cc3sc(C)nc3cc2C)n(Cc2cccc(F)c2)c1=O
REMARK SMILES IDX 8 1 7 2 9 3 10 4 23 5 11 6 6 7 32 8 33 9 5 11 3 12 2 13 4 14
REMARK SMILES IDX 1 15 24 17 25 18 31 19 26 20 29 21 27 22 30 23 28 24 12 25
REMARK SMILES IDX 21 26 13 27 22 28 20 29 14 30 19 31 15 32 18 33 16 34 17 35
REMARK H PARENT 9 10 2 16
REMARK Flexibility Score: inf
ROOT
ATOM      1  O   UNL     1     -20.622  18.080 -21.742  1.00  0.00    -0.248 OA
ATOM      2  C   UNL     1     -20.985  17.832 -22.938  1.00  0.00     0.332 A 
ATOM      3  N   UNL     1     -20.691  18.677 -23.941  1.00  0.00    -0.277 N 
ATOM      4  C   UNL     1     -21.062  18.443 -25.229  1.00  0.00     0.215 A 
ATOM      5  N   UNL     1     -21.747  17.327 -25.525  1.00  0.00    -0.259 N 
ATOM      6  N   UNL     1     -20.739  19.319 -26.119  1.00  0.00    -0.214 NA
ATOM      7  N   UNL     1     -21.671  16.712 -23.228  1.00  0.00    -0.236 N 
ATOM      8  C   UNL     1     -22.041  16.476 -24.512  1.00  0.00     0.335 A 
ATOM      9  O   UNL     1     -22.675  15.435 -24.750  1.00  0.00    -0.247 OA
ATOM     10  H   UNL     1     -20.165  19.549 -23.760  1.00  0.00     0.175 HD
ENDROOT
BRANCH   7  11
ATOM     11  C   UNL     1     -21.973  15.816 -22.131  1.00  0.00     0.232 C 
BRANCH  11  12
ATOM     12  C   UNL     1     -20.996  14.721 -22.044  1.00  0.00     0.240 C 
ATOM     13  N   UNL     1     -19.615  15.019 -21.901  1.00  0.00    -0.358 N 
ATOM     14  O   UNL     1     -21.343  13.510 -22.091  1.00  0.00    -0.273 OA
ATOM     15  C   UNL     1     -18.629  13.939 -21.814  1.00  0.00     0.142 C 
ATOM     16  H   UNL     1     -19.321  16.017 -21.859  1.00  0.00     0.163 HD
ENDBRANCH  11  12
ENDBRANCH   7  11
BRANCH   5  17
ATOM     17  C   UNL     1     -22.155  17.045 -26.873  1.00  0.00     0.166 C 
BRANCH  17  18
ATOM     18  C   UNL     1     -21.439  15.934 -27.524  1.00  0.00    -0.025 A 
ATOM     19  C   UNL     1     -22.052  14.743 -27.863  1.00  0.00     0.044 A 
ATOM     20  C   UNL     1     -20.112  16.065 -27.818  1.00  0.00     0.006 A 
ATOM     21  C   UNL     1     -21.334  13.740 -28.473  1.00  0.00     0.123 A 
ATOM     22  C   UNL     1     -19.361  15.062 -28.437  1.00  0.00     0.003 A 
ATOM     23  F   UNL     1     -21.937  12.564 -28.810  1.00  0.00    -0.207 F 
ATOM     24  C   UNL     1     -19.993  13.881 -28.768  1.00  0.00     0.039 A 
ENDBRANCH  17  18
ENDBRANCH   5  17
BRANCH   6  25
ATOM     25  C   UNL     1     -20.021  20.497 -25.790  1.00  0.00     0.071 A 
ATOM     26  C   UNL     1     -18.782  20.773 -26.325  1.00  0.00    -0.023 A 
ATOM     27  C   UNL     1     -20.527  21.437 -24.913  1.00  0.00     0.050 A 
ATOM     28  C   UNL     1     -18.250  19.728 -27.282  1.00  0.00     0.047 C 
ATOM     29  C   UNL     1     -18.078  21.886 -26.029  1.00  0.00     0.035 A 
ATOM     30  C   UNL     1     -19.805  22.593 -24.602  1.00  0.00     0.057 A 
ATOM     31  C   UNL     1     -18.573  22.854 -25.140  1.00  0.00     0.082 A 
ATOM     32  S   UNL     1     -20.031  23.974 -23.608  1.00  0.00    -0.119 S 
ATOM     33  N   UNL     1     -17.980  23.953 -24.790  1.00  0.00    -0.242 NA
ATOM     34  C   UNL     1     -18.560  24.782 -23.940  1.00  0.00     0.091 A 
ATOM     35  C   UNL     1     -18.079  26.089 -23.395  1.00  0.00     0.079 C 
ENDBRANCH   6  25
TORSDOF 5
ENDMDL
MODEL 3
REMARK VINA RESULT:    -8.552      2.869      7.003
REMARK INTER + INTRA:         -11.713
REMARK INTER:                 -10.881
REMARK INTRA:                  -0.832
REMARK UNBOUND:                -0.661
REMARK SMILES CNC(=O)Cn1c(=O)[nH]/c(=N\c2cc3sc(C)nc3cc2C)n(Cc2cccc(F)c2)c1=O
REMARK SMILES IDX 8 1 7 2 9 3 10 4 23 5 11 6 6 7 32 8 33 9 5 11 3 12 2 13 4 14
REMARK SMILES IDX 1 15 24 17 25 18 31 19 26 20 29 21 27 22 30 23 28 24 12 25
REMARK SMILES IDX 21 26 13 27 22 28 20 29 14 30 19 31 15 32 18 33 16 34 17 35
REMARK H PARENT 9 10 2 16
REMARK Flexibility Score: inf
ROOT
ATOM      1  O   UNL     1     -20.886  22.250 -30.202  1.00  0.00    -0.248 OA
ATOM      2  C   UNL     1     -20.605  21.123 -29.679  1.00  0.00     0.332 A 
ATOM      3  N   UNL     1     -20.017  21.045 -28.472  1.00  0.00    -0.277 N 
ATOM      4  C   UNL     1     -19.705  19.859 -27.884  1.00  0.00     0.215 A 
ATOM      5  N   UNL     1     -19.990  18.712 -28.521  1.00  0.00    -0.259 N 
ATOM      6  N   UNL     1     -19.135  19.889 -26.728  1.00  0.00    -0.214 NA
ATOM      7  N   UNL     1     -20.894  19.977 -30.322  1.00  0.00    -0.236 N 
ATOM      8  C   UNL     1     -20.584  18.793 -29.738  1.00  0.00     0.335 A 
ATOM      9  O   UNL     1     -20.860  17.753 -30.356  1.00  0.00    -0.247 OA
ATOM     10  H   UNL     1     -19.780  21.902 -27.945  1.00  0.00     0.175 HD
ENDROOT
BRANCH   7  11
ATOM     11  C   UNL     1     -21.529  20.087 -31.619  1.00  0.00     0.232 C 
BRANCH  11  12
ATOM     12  C   UNL     1     -22.967  19.792 -31.542  1.00  0.00     0.240 C 
ATOM     13  N   UNL     1     -23.446  18.515 -31.935  1.00  0.00    -0.358 N 
ATOM     14  O   UNL     1     -23.803  20.643 -31.134  1.00  0.00    -0.273 OA
ATOM     15  C   UNL     1     -24.877  18.205 -31.866  1.00  0.00     0.142 C 
ATOM     16  H   UNL     1     -22.761  17.806 -32.271  1.00  0.00     0.163 HD
ENDBRANCH  11  12
ENDBRANCH   7  11
BRANCH   5  17
ATOM     17  C   UNL     1     -19.676  17.439 -27.933  1.00  0.00     0.166 C 
BRANCH  17  18
ATOM     18  C   UNL     1     -20.823  16.719 -27.353  1.00  0.00    -0.025 A 
ATOM     19  C   UNL     1     -21.164  15.431 -27.723  1.00  0.00     0.044 A 
ATOM     20  C   UNL     1     -21.594  17.326 -26.404  1.00  0.00     0.006 A 
ATOM     21  C   UNL     1     -22.244  14.805 -27.145  1.00  0.00     0.123 A 
ATOM     22  C   UNL     1     -22.695  16.712 -25.802  1.00  0.00     0.003 A 
ATOM     23  F   UNL     1     -22.583  13.534 -27.508  1.00  0.00    -0.207 F 
ATOM     24  C   UNL     1     -23.019  15.427 -26.186  1.00  0.00     0.039 A 
ENDBRANCH  17  18
ENDBRANCH   5  17
BRANCH   6  25
ATOM     25  C   UNL     1     -18.833  21.109 -26.069  1.00  0.00     0.071 A 
ATOM     26  C   UNL     1     -17.630  21.757 -26.240  1.00  0.00    -0.023 A 
ATOM     27  C   UNL     1     -19.735  21.717 -25.217  1.00  0.00     0.050 A 
ATOM     28  C   UNL     1     -16.661  21.070 -27.179  1.00  0.00     0.047 C 
ATOM     29  C   UNL     1     -17.319  22.917 -25.626  1.00  0.00     0.035 A 
ATOM     30  C   UNL     1     -19.420  22.919 -24.576  1.00  0.00     0.057 A 
ATOM     31  C   UNL     1     -18.219  23.552 -24.755  1.00  0.00     0.082 A 
ATOM     32  S   UNL     1     -20.197  23.988 -23.480  1.00  0.00    -0.119 S 
ATOM     33  N   UNL     1     -18.020  24.664 -24.118  1.00  0.00    -0.242 NA
ATOM     34  C   UNL     1     -18.956  25.155 -23.325  1.00  0.00     0.091 A 
ATOM     35  C   UNL     1     -18.956  26.401 -22.498  1.00  0.00     0.079 C 
ENDBRANCH   6  25
TORSDOF 5
ENDMDL
MODEL 4
REMARK VINA RESULT:    -8.338      3.036      7.107
REMARK INTER + INTRA:         -11.436
REMARK INTER:                 -10.540
REMARK INTRA:                  -0.896
REMARK UNBOUND:                -0.661
REMARK SMILES CNC(=O)Cn1c(=O)[nH]/c(=N\c2cc3sc(C)nc3cc2C)n(Cc2cccc(F)c2)c1=O
REMARK SMILES IDX 8 1 7 2 9 3 10 4 23 5 11 6 6 7 32 8 33 9 5 11 3 12 2 13 4 14
REMARK SMILES IDX 1 15 24 17 25 18 31 19 26 20 29 21 27 22 30 23 28 24 12 25
REMARK SMILES IDX 21 26 13 27 22 28 20 29 14 30 19 31 15 32 18 33 16 34 17 35
REMARK H PARENT 9 10 2 16
REMARK Flexibility Score: inf
ROOT
ATOM      1  O   UNL     1     -21.174  22.465 -30.077  1.00  0.00    -0.248 OA
ATOM      2  C   UNL     1     -20.822  21.328 -29.626  1.00  0.00     0.332 A 
ATOM      3  N   UNL     1     -20.163  21.217 -28.459  1.00  0.00    -0.277 N 
ATOM      4  C   UNL     1     -19.773  20.018 -27.948  1.00  0.00     0.215 A 
ATOM      5  N   UNL     1     -20.053  18.891 -28.623  1.00  0.00    -0.259 N 
ATOM      6  N   UNL     1     -19.139  20.017 -26.825  1.00  0.00    -0.214 NA
ATOM      7  N   UNL     1     -21.105  20.202 -30.307  1.00  0.00    -0.236 N 
ATOM      8  C   UNL     1     -20.718  19.005 -29.799  1.00  0.00     0.335 A 
ATOM      9  O   UNL     1     -20.991  17.985 -30.450  1.00  0.00    -0.247 OA
ATOM     10  H   UNL     1     -19.927  22.057 -27.905  1.00  0.00     0.175 HD
ENDROOT
BRANCH   7  11
ATOM     11  C   UNL     1     -21.818  20.347 -31.559  1.00  0.00     0.232 C 
BRANCH  11  12
ATOM     12  C   UNL     1     -23.237  19.986 -31.417  1.00  0.00     0.240 C 
ATOM     13  N   UNL     1     -23.694  18.729 -31.892  1.00  0.00    -0.358 N 
ATOM     14  O   UNL     1     -24.073  20.763 -30.882  1.00  0.00    -0.273 OA
ATOM     15  C   UNL     1     -25.104  18.355 -31.760  1.00  0.00     0.142 C 
ATOM     16  H   UNL     1     -23.008  18.082 -32.334  1.00  0.00     0.163 HD
ENDBRANCH  11  12
ENDBRANCH   7  11
BRANCH   5  17
ATOM     17  C   UNL     1     -19.658  17.607 -28.116  1.00  0.00     0.166 C 
BRANCH  17  18
ATOM     18  C   UNL     1     -20.710  16.870 -27.394  1.00  0.00    -0.025 A 
ATOM     19  C   UNL     1     -21.176  17.254 -26.150  1.00  0.00     0.044 A 
ATOM     20  C   UNL     1     -21.269  15.760 -27.958  1.00  0.00     0.006 A 
ATOM     21  C   UNL     1     -22.163  16.531 -25.523  1.00  0.00     0.123 A 
ATOM     22  C   UNL     1     -22.273  15.009 -27.343  1.00  0.00     0.003 A 
ATOM     23  F   UNL     1     -22.625  16.908 -24.296  1.00  0.00    -0.207 F 
ATOM     24  C   UNL     1     -22.723  15.409 -26.102  1.00  0.00     0.039 A 
ENDBRANCH  17  18
ENDBRANCH   5  17
BRANCH   6  25
ATOM     25  C   UNL     1     -18.845  21.216 -26.126  1.00  0.00     0.071 A 
ATOM     26  C   UNL     1     -17.650  21.884 -26.286  1.00  0.00    -0.023 A 
ATOM     27  C   UNL     1     -19.744  21.782 -25.243  1.00  0.00     0.050 A 
ATOM     28  C   UNL     1     -16.684  21.243 -27.258  1.00  0.00     0.047 C 
ATOM     29  C   UNL     1     -17.347  23.025 -25.633  1.00  0.00     0.035 A 
ATOM     30  C   UNL     1     -19.437  22.965 -24.563  1.00  0.00     0.057 A 
ATOM     31  C   UNL     1     -18.246  23.617 -24.731  1.00  0.00     0.082 A 
ATOM     32  S   UNL     1     -20.215  23.983 -23.422  1.00  0.00    -0.119 S 
ATOM     33  N   UNL     1     -18.053  24.708 -24.056  1.00  0.00    -0.242 NA
ATOM     34  C   UNL     1     -18.986  25.159 -23.237  1.00  0.00     0.091 A 
ATOM     35  C   UNL     1     -18.992  26.375 -22.365  1.00  0.00     0.079 C 
ENDBRANCH   6  25
TORSDOF 5
ENDMDL
MODEL 5
REMARK VINA RESULT:    -8.198      2.628      5.649
REMARK INTER + INTRA:         -11.255
REMARK INTER:                 -10.453
REMARK INTRA:                  -0.801
REMARK UNBOUND:                -0.661
REMARK SMILES CNC(=O)Cn1c(=O)[nH]/c(=N\c2cc3sc(C)nc3cc2C)n(Cc2cccc(F)c2)c1=O
REMARK SMILES IDX 8 1 7 2 9 3 10 4 23 5 11 6 6 7 32 8 33 9 5 11 3 12 2 13 4 14
REMARK SMILES IDX 1 15 24 17 25 18 31 19 26 20 29 21 27 22 30 23 28 24 12 25
REMARK SMILES IDX 21 26 13 27 22 28 20 29 14 30 19 31 15 32 18 33 16 34 17 35
REMARK H PARENT 9 10 2 16
REMARK Flexibility Score: inf
ROOT
ATOM      1  O   UNL     1     -21.377  15.813 -30.386  1.00  0.00    -0.248 OA
ATOM      2  C   UNL     1     -21.230  16.496 -29.321  1.00  0.00     0.332 A 
ATOM      3  N   UNL     1     -21.646  17.773 -29.253  1.00  0.00    -0.277 N 
ATOM      4  C   UNL     1     -21.505  18.530 -28.132  1.00  0.00     0.215 A 
ATOM      5  N   UNL     1     -20.931  17.995 -27.042  1.00  0.00    -0.259 N 
ATOM      6  N   UNL     1     -21.929  19.748 -28.169  1.00  0.00    -0.214 NA
ATOM      7  N   UNL     1     -20.654  15.954 -28.232  1.00  0.00    -0.236 N 
ATOM      8  C   UNL     1     -20.513  16.707 -27.113  1.00  0.00     0.335 A 
ATOM      9  O   UNL     1     -19.977  16.182 -26.125  1.00  0.00    -0.247 OA
ATOM     10  H   UNL     1     -22.093  18.225 -30.067  1.00  0.00     0.175 HD
ENDROOT
BRANCH   7  11
ATOM     11  C   UNL     1     -20.217  14.577 -28.330  1.00  0.00     0.232 C 
BRANCH  11  12
ATOM     12  C   UNL     1     -21.356  13.648 -28.337  1.00  0.00     0.240 C 
ATOM     13  N   UNL     1     -21.606  12.850 -29.485  1.00  0.00    -0.358 N 
ATOM     14  O   UNL     1     -22.130  13.531 -27.349  1.00  0.00    -0.273 OA
ATOM     15  C   UNL     1     -22.738  11.920 -29.509  1.00  0.00     0.142 C 
ATOM     16  H   UNL     1     -20.970  12.940 -30.304  1.00  0.00     0.163 HD
ENDBRANCH  11  12
ENDBRANCH   7  11
BRANCH   5  17
ATOM     17  C   UNL     1     -20.765  18.764 -25.840  1.00  0.00     0.166 C 
BRANCH  17  18
ATOM     18  C   UNL     1     -19.768  19.845 -25.922  1.00  0.00    -0.025 A 
ATOM     19  C   UNL     1     -18.610  19.741 -26.671  1.00  0.00     0.044 A 
ATOM     20  C   UNL     1     -19.975  21.011 -25.243  1.00  0.00     0.006 A 
ATOM     21  C   UNL     1     -17.715  20.785 -26.715  1.00  0.00     0.123 A 
ATOM     22  C   UNL     1     -19.082  22.084 -25.271  1.00  0.00     0.003 A 
ATOM     23  F   UNL     1     -16.571  20.685 -27.452  1.00  0.00    -0.207 F 
ATOM     24  C   UNL     1     -17.932  21.960 -26.024  1.00  0.00     0.039 A 
ENDBRANCH  17  18
ENDBRANCH   5  17
BRANCH   6  25
ATOM     25  C   UNL     1     -22.528  20.302 -29.329  1.00  0.00     0.071 A 
ATOM     26  C   UNL     1     -21.877  21.222 -30.122  1.00  0.00    -0.023 A 
ATOM     27  C   UNL     1     -23.801  19.947 -29.731  1.00  0.00     0.050 A 
ATOM     28  C   UNL     1     -20.484  21.594 -29.660  1.00  0.00     0.047 C 
ATOM     29  C   UNL     1     -22.424  21.763 -31.230  1.00  0.00     0.035 A 
ATOM     30  C   UNL     1     -24.374  20.503 -30.879  1.00  0.00     0.057 A 
ATOM     31  C   UNL     1     -23.716  21.417 -31.656  1.00  0.00     0.082 A 
ATOM     32  S   UNL     1     -25.863  20.363 -31.720  1.00  0.00    -0.119 S 
ATOM     33  N   UNL     1     -24.331  21.877 -32.702  1.00  0.00    -0.242 NA
ATOM     34  C   UNL     1     -25.552  21.465 -32.991  1.00  0.00     0.091 A 
ATOM     35  C   UNL     1     -26.450  21.847 -34.125  1.00  0.00     0.079 C 
ENDBRANCH   6  25
TORSDOF 5
ENDMDL
