MODEL 1
REMARK VINA RESULT:    -8.831      0.000      0.000
REMARK INTER + INTRA:         -12.482
REMARK INTER:                 -11.788
REMARK INTRA:                  -0.694
REMARK UNBOUND:                -1.070
REMARK SMILES CNC(=O)Cn1c(=O)[nH]/c(=N\c2cc3sc(C)nc3cc2C)n(Cc2cc(F)c(F)c(F)c2)c1=O
REMARK SMILES IDX 8 1 7 2 9 3 10 4 23 5 11 6 6 7 34 8 35 9 5 11 3 12 2 13 4 14
REMARK SMILES IDX 1 15 24 17 25 18 26 19 33 20 27 21 31 22 28 23 29 24 32 25
REMARK SMILES IDX 30 26 12 27 21 28 13 29 22 30 20 31 14 32 19 33 15 34 18 35
REMARK SMILES IDX 16 36 17 37
REMARK H PARENT 9 10 2 16
REMARK Flexibility Score: inf
ROOT
ATOM      1  O   UNL     1     -20.736  18.013 -21.542  1.00  0.00    -0.248 OA
ATOM      2  C   UNL     1     -21.073  17.829 -22.739  1.00  0.00     0.332 A 
ATOM      3  N   UNL     1     -20.778  18.769 -23.643  1.00  0.00    -0.277 N 
ATOM      4  C   UNL     1     -21.136  18.594 -24.947  1.00  0.00     0.215 A 
ATOM      5  N   UNL     1     -21.799  17.455 -25.328  1.00  0.00    -0.259 N 
ATOM      6  N   UNL     1     -20.822  19.475 -25.794  1.00  0.00    -0.214 NA
ATOM      7  N   UNL     1     -21.726  16.711 -23.134  1.00  0.00    -0.236 N 
ATOM      8  C   UNL     1     -22.087  16.522 -24.413  1.00  0.00     0.335 A 
ATOM      9  O   UNL     1     -22.697  15.478 -24.789  1.00  0.00    -0.247 OA
ATOM     10  H   UNL     1     -20.287  19.632 -23.338  1.00  0.00     0.175 HD
ENDROOT
BRANCH   7  11
ATOM     11  C   UNL     1     -21.989  15.726 -22.104  1.00  0.00     0.232 C 
BRANCH  11  12
ATOM     12  C   UNL     1     -20.945  14.686 -22.133  1.00  0.00     0.240 C 
ATOM     13  N   UNL     1     -19.551  15.005 -22.110  1.00  0.00    -0.358 N 
ATOM     14  O   UNL     1     -21.211  13.450 -22.179  1.00  0.00    -0.273 OA
ATOM     15  C   UNL     1     -18.531  13.988 -22.140  1.00  0.00     0.142 C 
ATOM     16  H   UNL     1     -19.273  16.023 -22.061  1.00  0.00     0.163 HD
ENDBRANCH  11  12
ENDBRANCH   7  11
BRANCH   5  17
ATOM     17  C   UNL     1     -22.179  17.326 -26.698  1.00  0.00     0.166 C 
BRANCH  17  18
ATOM     18  C   UNL     1     -21.587  16.214 -27.448  1.00  0.00    -0.022 A 
ATOM     19  C   UNL     1     -22.406  15.247 -27.997  1.00  0.00     0.048 A 
ATOM     20  C   UNL     1     -20.232  16.106 -27.639  1.00  0.00     0.048 A 
ATOM     21  C   UNL     1     -21.844  14.221 -28.710  1.00  0.00     0.162 A 
ATOM     22  C   UNL     1     -19.679  15.054 -28.368  1.00  0.00     0.162 A 
ATOM     23  F   UNL     1     -22.659  13.262 -29.259  1.00  0.00    -0.204 F 
ATOM     24  C   UNL     1     -20.495  14.066 -28.932  1.00  0.00     0.194 A 
ATOM     25  F   UNL     1     -18.353  14.975 -28.543  1.00  0.00    -0.204 F 
ATOM     26  F   UNL     1     -19.969  13.036 -29.645  1.00  0.00    -0.200 F 
ENDBRANCH  17  18
ENDBRANCH   5  17
BRANCH   6  27
ATOM     27  C   UNL     1     -20.124  20.643 -25.538  1.00  0.00     0.071 A 
ATOM     28  C   UNL     1     -18.866  20.908 -26.123  1.00  0.00    -0.023 A 
ATOM     29  C   UNL     1     -20.577  21.621 -24.665  1.00  0.00     0.050 A 
ATOM     30  C   UNL     1     -18.347  19.858 -27.047  1.00  0.00     0.047 C 
ATOM     31  C   UNL     1     -18.155  22.018 -25.862  1.00  0.00     0.035 A 
ATOM     32  C   UNL     1     -19.824  22.755 -24.413  1.00  0.00     0.057 A 
ATOM     33  C   UNL     1     -18.619  23.008 -24.975  1.00  0.00     0.082 A 
ATOM     34  S   UNL     1     -20.014  24.159 -23.411  1.00  0.00    -0.119 S 
ATOM     35  N   UNL     1     -17.995  24.101 -24.657  1.00  0.00    -0.242 NA
ATOM     36  C   UNL     1     -18.543  24.943 -23.796  1.00  0.00     0.091 A 
ATOM     37  C   UNL     1     -17.984  26.250 -23.285  1.00  0.00     0.079 C 
ENDBRANCH   6  27
TORSDOF 5
ENDMDL
MODEL 2
REMARK VINA RESULT:    -8.512      4.433      6.908
REMARK INTER + INTRA:         -12.070
REMARK INTER:                 -11.200
REMARK INTRA:                  -0.870
REMARK UNBOUND:                -1.070
REMARK SMILES CNC(=O)Cn1c(=O)[nH]/c(=N\c2cc3sc(C)nc3cc2C)n(Cc2cc(F)c(F)c(F)c2)c1=O
REMARK SMILES IDX 8 1 7 2 9 3 10 4 23 5 11 6 6 7 34 8 35 9 5 11 3 12 2 13 4 14
REMARK SMILES IDX 1 15 24 17 25 18 26 19 33 20 27 21 31 22 28 23 29 24 32 25
REMARK SMILES IDX 30 26 12 27 21 28 13 29 22 30 20 31 14 32 19 33 15 34 18 35
REMARK SMILES IDX 16 36 17 37
REMARK H PARENT 9 10 2 16
REMARK Flexibility Score: inf
ROOT
ATOM      1  O   UNL     1     -19.436  21.834 -28.876  1.00  0.00    -0.248 OA
ATOM      2  C   UNL     1     -19.835  20.811 -28.264  1.00  0.00     0.332 A 
ATOM      3  N   UNL     1     -20.924  20.177 -28.712  1.00  0.00    -0.277 N 
ATOM      4  C   UNL     1     -21.379  19.067 -28.066  1.00  0.00     0.215 A 
ATOM      5  N   UNL     1     -20.719  18.603 -26.955  1.00  0.00    -0.259 N 
ATOM      6  N   UNL     1     -22.388  18.461 -28.519  1.00  0.00    -0.214 NA
ATOM      7  N   UNL     1     -19.197  20.337 -27.169  1.00  0.00    -0.236 N 
ATOM      8  C   UNL     1     -19.630  19.246 -26.519  1.00  0.00     0.335 A 
ATOM      9  O   UNL     1     -19.037  18.797 -25.495  1.00  0.00    -0.247 OA
ATOM     10  H   UNL     1     -21.422  20.546 -29.546  1.00  0.00     0.175 HD
ENDROOT
BRANCH   7  11
ATOM     11  C   UNL     1     -18.010  21.060 -26.757  1.00  0.00     0.232 C 
BRANCH  11  12
ATOM     12  C   UNL     1     -18.386  22.145 -25.832  1.00  0.00     0.240 C 
ATOM     13  N   UNL     1     -19.401  21.980 -24.838  1.00  0.00    -0.358 N 
ATOM     14  O   UNL     1     -17.839  23.285 -25.856  1.00  0.00    -0.273 OA
ATOM     15  C   UNL     1     -19.769  23.041 -23.935  1.00  0.00     0.142 C 
ATOM     16  H   UNL     1     -19.884  21.043 -24.767  1.00  0.00     0.163 HD
ENDBRANCH  11  12
ENDBRANCH   7  11
BRANCH   5  17
ATOM     17  C   UNL     1     -21.246  17.452 -26.293  1.00  0.00     0.166 C 
BRANCH  17  18
ATOM     18  C   UNL     1     -21.140  16.174 -27.002  1.00  0.00    -0.022 A 
ATOM     19  C   UNL     1     -22.235  15.335 -27.066  1.00  0.00     0.048 A 
ATOM     20  C   UNL     1     -19.982  15.783 -27.626  1.00  0.00     0.048 A 
ATOM     21  C   UNL     1     -22.131  14.149 -27.745  1.00  0.00     0.162 A 
ATOM     22  C   UNL     1     -19.895  14.572 -28.312  1.00  0.00     0.162 A 
ATOM     23  F   UNL     1     -23.220  13.317 -27.810  1.00  0.00    -0.204 F 
ATOM     24  C   UNL     1     -20.995  13.710 -28.387  1.00  0.00     0.194 A 
ATOM     25  F   UNL     1     -18.753  14.216 -28.916  1.00  0.00    -0.204 F 
ATOM     26  F   UNL     1     -20.924  12.528 -29.052  1.00  0.00    -0.200 F 
ENDBRANCH  17  18
ENDBRANCH   5  17
BRANCH   6  27
ATOM     27  C   UNL     1     -23.113  18.809 -29.647  1.00  0.00     0.071 A 
ATOM     28  C   UNL     1     -23.141  17.995 -30.801  1.00  0.00    -0.023 A 
ATOM     29  C   UNL     1     -23.829  19.992 -29.752  1.00  0.00     0.050 A 
ATOM     30  C   UNL     1     -22.356  16.729 -30.720  1.00  0.00     0.047 C 
ATOM     31  C   UNL     1     -23.807  18.330 -31.919  1.00  0.00     0.035 A 
ATOM     32  C   UNL     1     -24.507  20.314 -30.916  1.00  0.00     0.057 A 
ATOM     33  C   UNL     1     -24.534  19.533 -32.021  1.00  0.00     0.082 A 
ATOM     34  S   UNL     1     -25.473  21.654 -31.446  1.00  0.00    -0.119 S 
ATOM     35  N   UNL     1     -25.194  19.939 -33.062  1.00  0.00    -0.242 NA
ATOM     36  C   UNL     1     -25.825  21.101 -33.025  1.00  0.00     0.091 A 
ATOM     37  C   UNL     1     -26.630  21.759 -34.121  1.00  0.00     0.079 C 
ENDBRANCH   6  27
TORSDOF 5
ENDMDL
MODEL 3
REMARK VINA RESULT:    -8.437      3.735      5.644
REMARK INTER + INTRA:         -11.972
REMARK INTER:                 -11.347
REMARK INTRA:                  -0.625
REMARK UNBOUND:                -1.070
REMARK SMILES CNC(=O)Cn1c(=O)[nH]/c(=N\c2cc3sc(C)nc3cc2C)n(Cc2cc(F)c(F)c(F)c2)c1=O
REMARK SMILES IDX 8 1 7 2 9 3 10 4 23 5 11 6 6 7 34 8 35 9 5 11 3 12 2 13 4 14
REMARK SMILES IDX 1 15 24 17 25 18 26 19 33 20 27 21 31 22 28 23 29 24 32 25
REMARK SMILES IDX 30 26 12 27 21 28 13 29 22 30 20 31 14 32 19 33 15 34 18 35
REMARK SMILES IDX 16 36 17 37
REMARK H PARENT 9 10 2 16
REMARK Flexibility Score: inf
ROOT
ATOM      1  O   UNL     1     -21.230  22.536 -30.229  1.00  0.00    -0.248 OA
ATOM      2  C   UNL     1     -20.820  21.458 -29.729  1.00  0.00     0.332 A 
ATOM      3  N   UNL     1     -20.190  21.494 -28.550  1.00  0.00    -0.277 N 
ATOM      4  C   UNL     1     -19.734  20.340 -27.986  1.00  0.00     0.215 A 
ATOM      5  N   UNL     1     -19.920  19.143 -28.632  1.00  0.00    -0.259 N 
ATOM      6  N   UNL     1     -19.171  20.386 -26.859  1.00  0.00    -0.214 NA
ATOM      7  N   UNL     1     -20.996  20.268 -30.349  1.00  0.00    -0.236 N 
ATOM      8  C   UNL     1     -20.552  19.121 -29.811  1.00  0.00     0.335 A 
ATOM      9  O   UNL     1     -20.714  18.005 -30.386  1.00  0.00    -0.247 OA
ATOM     10  H   UNL     1     -20.045  22.408 -28.078  1.00  0.00     0.175 HD
ENDROOT
BRANCH   7  11
ATOM     11  C   UNL     1     -21.708  20.303 -31.611  1.00  0.00     0.232 C 
BRANCH  11  12
ATOM     12  C   UNL     1     -23.089  19.827 -31.415  1.00  0.00     0.240 C 
ATOM     13  N   UNL     1     -23.508  18.519 -31.813  1.00  0.00    -0.358 N 
ATOM     14  O   UNL     1     -23.989  20.540 -30.883  1.00  0.00    -0.273 OA
ATOM     15  C   UNL     1     -24.859  18.055 -31.622  1.00  0.00     0.142 C 
ATOM     16  H   UNL     1     -22.793  17.877 -32.253  1.00  0.00     0.163 HD
ENDBRANCH  11  12
ENDBRANCH   7  11
BRANCH   5  17
ATOM     17  C   UNL     1     -19.401  17.962 -28.019  1.00  0.00     0.166 C 
BRANCH  17  18
ATOM     18  C   UNL     1     -20.338  16.852 -27.822  1.00  0.00    -0.022 A 
ATOM     19  C   UNL     1     -20.061  15.617 -28.374  1.00  0.00     0.048 A 
ATOM     20  C   UNL     1     -21.487  16.994 -27.084  1.00  0.00     0.048 A 
ATOM     21  C   UNL     1     -20.935  14.582 -28.169  1.00  0.00     0.162 A 
ATOM     22  C   UNL     1     -22.364  15.928 -26.887  1.00  0.00     0.162 A 
ATOM     23  F   UNL     1     -20.657  13.354 -28.716  1.00  0.00    -0.204 F 
ATOM     24  C   UNL     1     -22.098  14.670 -27.440  1.00  0.00     0.194 A 
ATOM     25  F   UNL     1     -23.478  16.093 -26.160  1.00  0.00    -0.204 F 
ATOM     26  F   UNL     1     -22.944  13.623 -27.255  1.00  0.00    -0.200 F 
ENDBRANCH  17  18
ENDBRANCH   5  17
BRANCH   6  27
ATOM     27  C   UNL     1     -18.960  21.523 -26.096  1.00  0.00     0.071 A 
ATOM     28  C   UNL     1     -17.757  22.259 -26.164  1.00  0.00    -0.023 A 
ATOM     29  C   UNL     1     -19.885  22.004 -25.182  1.00  0.00     0.050 A 
ATOM     30  C   UNL     1     -16.736  21.745 -27.124  1.00  0.00     0.047 C 
ATOM     31  C   UNL     1     -17.516  23.344 -25.409  1.00  0.00     0.035 A 
ATOM     32  C   UNL     1     -19.612  23.124 -24.414  1.00  0.00     0.057 A 
ATOM     33  C   UNL     1     -18.459  23.830 -24.481  1.00  0.00     0.082 A 
ATOM     34  S   UNL     1     -20.461  24.010 -23.187  1.00  0.00    -0.119 S 
ATOM     35  N   UNL     1     -18.306  24.859 -23.706  1.00  0.00    -0.242 NA
ATOM     36  C   UNL     1     -19.273  25.199 -22.869  1.00  0.00     0.091 A 
ATOM     37  C   UNL     1     -19.291  26.341 -21.880  1.00  0.00     0.079 C 
ENDBRANCH   6  27
TORSDOF 5
ENDMDL
MODEL 4
REMARK VINA RESULT:    -8.421      5.001      7.382
REMARK INTER + INTRA:         -11.952
REMARK INTER:                 -11.200
REMARK INTRA:                  -0.752
REMARK UNBOUND:                -1.070
REMARK SMILES CNC(=O)Cn1c(=O)[nH]/c(=N\c2cc3sc(C)nc3cc2C)n(Cc2cc(F)c(F)c(F)c2)c1=O
REMARK SMILES IDX 8 1 7 2 9 3 10 4 23 5 11 6 6 7 34 8 35 9 5 11 3 12 2 13 4 14
REMARK SMILES IDX 1 15 24 17 25 18 26 19 33 20 27 21 31 22 28 23 29 24 32 25
REMARK SMILES IDX 30 26 12 27 21 28 13 29 22 30 20 31 14 32 19 33 15 34 18 35
REMARK SMILES IDX 16 36 17 37
REMARK H PARENT 9 10 2 16
REMARK Flexibility Score: inf
ROOT
ATOM      1  O   UNL     1     -21.229  15.625 -30.240  1.00  0.00    -0.248 OA
ATOM      2  C   UNL     1     -21.128  16.363 -29.227  1.00  0.00     0.332 A 
ATOM      3  N   UNL     1     -21.552  17.628 -29.307  1.00  0.00    -0.277 N 
ATOM      4  C   UNL     1     -21.451  18.449 -28.224  1.00  0.00     0.215 A 
ATOM      5  N   UNL     1     -20.912  17.976 -27.054  1.00  0.00    -0.259 N 
ATOM      6  N   UNL     1     -21.885  19.631 -28.305  1.00  0.00    -0.214 NA
ATOM      7  N   UNL     1     -20.602  15.913 -28.064  1.00  0.00    -0.236 N 
ATOM      8  C   UNL     1     -20.493  16.707 -26.987  1.00  0.00     0.335 A 
ATOM      9  O   UNL     1     -20.002  16.292 -25.897  1.00  0.00    -0.247 OA
ATOM     10  H   UNL     1     -21.946  17.978 -30.203  1.00  0.00     0.175 HD
ENDROOT
BRANCH   7  11
ATOM     11  C   UNL     1     -20.186  14.525 -28.044  1.00  0.00     0.232 C 
BRANCH  11  12
ATOM     12  C   UNL     1     -21.365  13.652 -28.193  1.00  0.00     0.240 C 
ATOM     13  N   UNL     1     -21.565  12.833 -29.347  1.00  0.00    -0.358 N 
ATOM     14  O   UNL     1     -22.270  13.570 -27.313  1.00  0.00    -0.273 OA
ATOM     15  C   UNL     1     -22.719  11.981 -29.493  1.00  0.00     0.142 C 
ATOM     16  H   UNL     1     -20.833  12.855 -30.110  1.00  0.00     0.163 HD
ENDBRANCH  11  12
ENDBRANCH   7  11
BRANCH   5  17
ATOM     17  C   UNL     1     -20.800  18.878 -25.953  1.00  0.00     0.166 C 
BRANCH  17  18
ATOM     18  C   UNL     1     -19.777  19.922 -26.052  1.00  0.00    -0.022 A 
ATOM     19  C   UNL     1     -19.975  21.136 -25.427  1.00  0.00     0.048 A 
ATOM     20  C   UNL     1     -18.605  19.726 -26.741  1.00  0.00     0.048 A 
ATOM     21  C   UNL     1     -19.004  22.100 -25.512  1.00  0.00     0.162 A 
ATOM     22  C   UNL     1     -17.629  20.719 -26.817  1.00  0.00     0.162 A 
ATOM     23  F   UNL     1     -19.201  23.305 -24.888  1.00  0.00    -0.204 F 
ATOM     24  C   UNL     1     -17.814  21.956 -26.188  1.00  0.00     0.194 A 
ATOM     25  F   UNL     1     -16.492  20.501 -27.492  1.00  0.00    -0.204 F 
ATOM     26  F   UNL     1     -16.871  22.931 -26.253  1.00  0.00    -0.200 F 
ENDBRANCH  17  18
ENDBRANCH   5  17
BRANCH   6  27
ATOM     27  C   UNL     1     -22.480  20.209 -29.413  1.00  0.00     0.071 A 
ATOM     28  C   UNL     1     -21.869  21.261 -30.130  1.00  0.00    -0.023 A 
ATOM     29  C   UNL     1     -23.731  19.837 -29.882  1.00  0.00     0.050 A 
ATOM     30  C   UNL     1     -20.533  21.696 -29.628  1.00  0.00     0.047 C 
ATOM     31  C   UNL     1     -22.443  21.861 -31.187  1.00  0.00     0.035 A 
ATOM     32  C   UNL     1     -24.302  20.472 -30.973  1.00  0.00     0.057 A 
ATOM     33  C   UNL     1     -23.714  21.479 -31.659  1.00  0.00     0.082 A 
ATOM     34  S   UNL     1     -25.801  20.325 -31.835  1.00  0.00    -0.119 S 
ATOM     35  N   UNL     1     -24.346  22.009 -32.661  1.00  0.00    -0.242 NA
ATOM     36  C   UNL     1     -25.546  21.559 -32.992  1.00  0.00     0.091 A 
ATOM     37  C   UNL     1     -26.448  22.041 -34.103  1.00  0.00     0.079 C 
ENDBRANCH   6  27
TORSDOF 5
ENDMDL
MODEL 5
REMARK VINA RESULT:    -8.301      2.414      2.852
REMARK INTER + INTRA:         -11.797
REMARK INTER:                 -11.401
REMARK INTRA:                  -0.396
REMARK UNBOUND:                -1.070
REMARK SMILES CNC(=O)Cn1c(=O)[nH]/c(=N\c2cc3sc(C)nc3cc2C)n(Cc2cc(F)c(F)c(F)c2)c1=O
REMARK SMILES IDX 8 1 7 2 9 3 10 4 23 5 11 6 6 7 34 8 35 9 5 11 3 12 2 13 4 14
REMARK SMILES IDX 1 15 24 17 25 18 26 19 33 20 27 21 31 22 28 23 29 24 32 25
REMARK SMILES IDX 30 26 12 27 21 28 13 29 22 30 20 31 14 32 19 33 15 34 18 35
REMARK SMILES IDX 16 36 17 37
REMARK H PARENT 9 10 2 16
REMARK Flexibility Score: inf
ROOT
ATOM      1  O   UNL     1     -20.921  17.774 -23.039  1.00  0.00    -0.248 OA
ATOM      2  C   UNL     1     -20.571  17.642 -24.239  1.00  0.00     0.332 A 
ATOM      3  N   UNL     1     -20.031  18.690 -24.870  1.00  0.00    -0.277 N 
ATOM      4  C   UNL     1     -19.645  18.575 -26.172  1.00  0.00     0.215 A 
ATOM      5  N   UNL     1     -19.814  17.384 -26.833  1.00  0.00    -0.259 N 
ATOM      6  N   UNL     1     -19.108  19.563 -26.744  1.00  0.00    -0.214 NA
ATOM      7  N   UNL     1     -20.727  16.476 -24.907  1.00  0.00    -0.236 N 
ATOM      8  C   UNL     1     -20.354  16.344 -26.189  1.00  0.00     0.335 A 
ATOM      9  O   UNL     1     -20.497  15.255 -26.819  1.00  0.00    -0.247 OA
ATOM     10  H   UNL     1     -19.920  19.590 -24.362  1.00  0.00     0.175 HD
ENDROOT
BRANCH   7  11
ATOM     11  C   UNL     1     -21.295  15.377 -24.151  1.00  0.00     0.232 C 
BRANCH  11  12
ATOM     12  C   UNL     1     -20.215  14.591 -23.529  1.00  0.00     0.240 C 
ATOM     13  N   UNL     1     -19.719  14.880 -22.220  1.00  0.00    -0.358 N 
ATOM     14  O   UNL     1     -19.659  13.613 -24.109  1.00  0.00    -0.273 OA
ATOM     15  C   UNL     1     -18.662  14.113 -21.612  1.00  0.00     0.142 C 
ATOM     16  H   UNL     1     -20.155  15.682 -21.686  1.00  0.00     0.163 HD
ENDBRANCH  11  12
ENDBRANCH   7  11
BRANCH   5  17
ATOM     17  C   UNL     1     -19.421  17.316 -28.204  1.00  0.00     0.166 C 
BRANCH  17  18
ATOM     18  C   UNL     1     -20.483  17.453 -29.205  1.00  0.00    -0.022 A 
ATOM     19  C   UNL     1     -20.806  18.704 -29.693  1.00  0.00     0.048 A 
ATOM     20  C   UNL     1     -21.165  16.366 -29.694  1.00  0.00     0.048 A 
ATOM     21  C   UNL     1     -21.788  18.819 -30.641  1.00  0.00     0.162 A 
ATOM     22  C   UNL     1     -22.162  16.504 -30.658  1.00  0.00     0.162 A 
ATOM     23  F   UNL     1     -22.107  20.062 -31.128  1.00  0.00    -0.204 F 
ATOM     24  C   UNL     1     -22.501  17.764 -31.164  1.00  0.00     0.194 A 
ATOM     25  F   UNL     1     -22.810  15.426 -31.121  1.00  0.00    -0.204 F 
ATOM     26  F   UNL     1     -23.470  17.912 -32.104  1.00  0.00    -0.200 F 
ENDBRANCH  17  18
ENDBRANCH   5  17
BRANCH   6  27
ATOM     27  C   UNL     1     -18.852  20.798 -26.174  1.00  0.00     0.071 A 
ATOM     28  C   UNL     1     -17.638  21.487 -26.390  1.00  0.00    -0.023 A 
ATOM     29  C   UNL     1     -19.738  21.437 -25.319  1.00  0.00     0.050 A 
ATOM     30  C   UNL     1     -16.658  20.807 -27.287  1.00  0.00     0.047 C 
ATOM     31  C   UNL     1     -17.353  22.670 -25.819  1.00  0.00     0.035 A 
ATOM     32  C   UNL     1     -19.419  22.655 -24.743  1.00  0.00     0.057 A 
ATOM     33  C   UNL     1     -18.257  23.314 -24.952  1.00  0.00     0.082 A 
ATOM     34  S   UNL     1     -20.212  23.739 -23.644  1.00  0.00    -0.119 S 
ATOM     35  N   UNL     1     -18.060  24.447 -24.350  1.00  0.00    -0.242 NA
ATOM     36  C   UNL     1     -18.992  24.935 -23.548  1.00  0.00     0.091 A 
ATOM     37  C   UNL     1     -18.958  26.216 -22.749  1.00  0.00     0.079 C 
ENDBRANCH   6  27
TORSDOF 5
ENDMDL
