MODEL 1
REMARK VINA RESULT:    -8.696      0.000      0.000
REMARK INTER + INTRA:         -12.204
REMARK INTER:                 -11.834
REMARK INTRA:                  -0.370
REMARK UNBOUND:                -0.458
REMARK SMILES COc1ccc(/N=c2\[nH]c(=O)n(Cc3nc[nH]n3)c(=O)n2Cc2cc(F)c(F)c(F)c2)cc1
REMARK SMILES IDX 11 1 10 2 9 3 8 4 21 5 7 6 12 7 19 8 20 9 13 11 14 12 18 13
REMARK SMILES IDX 15 14 17 15 16 16 22 18 23 19 24 20 31 21 25 22 29 23 26 24
REMARK SMILES IDX 27 25 30 26 28 27 6 28 5 29 32 30 4 31 33 32 3 33 2 34 1 35
REMARK H PARENT 9 10 17 17
REMARK Flexibility Score: inf
ROOT
ATOM      1  O   UNL     1     -20.146  19.988 -24.366  1.00  0.00    -0.248 OA
ATOM      2  C   UNL     1     -19.999  19.163 -25.327  1.00  0.00     0.332 A 
ATOM      3  N   UNL     1     -20.146  17.863 -25.110  1.00  0.00    -0.277 N 
ATOM      4  C   UNL     1     -19.989  16.970 -26.134  1.00  0.00     0.215 A 
ATOM      5  N   UNL     1     -19.687  17.378 -27.376  1.00  0.00    -0.259 N 
ATOM      6  N   UNL     1     -20.130  15.728 -25.902  1.00  0.00    -0.215 NA
ATOM      7  N   UNL     1     -19.699  19.600 -26.545  1.00  0.00    -0.237 N 
ATOM      8  C   UNL     1     -19.549  18.711 -27.541  1.00  0.00     0.335 A 
ATOM      9  O   UNL     1     -19.266  19.181 -28.670  1.00  0.00    -0.247 OA
ATOM     10  H   UNL     1     -20.382  17.507 -24.152  1.00  0.00     0.175 HD
ENDROOT
BRANCH   7  11
ATOM     11  C   UNL     1     -19.537  21.018 -26.796  1.00  0.00     0.211 C 
BRANCH  11  12
ATOM     12  C   UNL     1     -18.143  21.459 -26.497  1.00  0.00     0.170 A 
ATOM     13  N   UNL     1     -17.014  20.748 -26.649  1.00  0.00    -0.157 NA
ATOM     14  N   UNL     1     -17.807  22.659 -26.021  1.00  0.00    -0.218 NA
ATOM     15  N   UNL     1     -15.994  21.500 -26.272  1.00  0.00    -0.266 N 
ATOM     16  C   UNL     1     -16.487  22.685 -25.883  1.00  0.00     0.216 A 
ATOM     17  H   UNL     1     -14.995  21.189 -26.290  1.00  0.00     0.191 HD
ENDBRANCH  11  12
ENDBRANCH   7  11
BRANCH   5  18
ATOM     18  C   UNL     1     -19.522  16.442 -28.462  1.00  0.00     0.166 C 
BRANCH  18  19
ATOM     19  C   UNL     1     -20.758  16.210 -29.251  1.00  0.00    -0.022 A 
ATOM     20  C   UNL     1     -21.364  17.184 -30.015  1.00  0.00     0.048 A 
ATOM     21  C   UNL     1     -21.379  14.967 -29.259  1.00  0.00     0.048 A 
ATOM     22  C   UNL     1     -22.514  16.941 -30.741  1.00  0.00     0.162 A 
ATOM     23  C   UNL     1     -22.527  14.708 -29.977  1.00  0.00     0.162 A 
ATOM     24  F   UNL     1     -23.087  17.929 -31.487  1.00  0.00    -0.204 F 
ATOM     25  C   UNL     1     -23.118  15.702 -30.737  1.00  0.00     0.194 A 
ATOM     26  F   UNL     1     -23.137  13.494 -29.986  1.00  0.00    -0.204 F 
ATOM     27  F   UNL     1     -24.256  15.456 -31.453  1.00  0.00    -0.200 F 
ENDBRANCH  18  19
ENDBRANCH   5  18
BRANCH   6  28
ATOM     28  C   UNL     1     -20.445  15.305 -24.581  1.00  0.00     0.067 A 
ATOM     29  C   UNL     1     -21.673  15.511 -23.991  1.00  0.00     0.032 A 
ATOM     30  C   UNL     1     -19.464  14.655 -23.860  1.00  0.00     0.032 A 
ATOM     31  C   UNL     1     -21.936  15.082 -22.706  1.00  0.00     0.048 A 
ATOM     32  C   UNL     1     -19.731  14.225 -22.565  1.00  0.00     0.048 A 
ATOM     33  C   UNL     1     -20.946  14.432 -21.989  1.00  0.00     0.119 A 
BRANCH  33  34
ATOM     34  O   UNL     1     -21.245  14.013 -20.690  1.00  0.00    -0.497 OA
ATOM     35  C   UNL     1     -22.568  13.955 -20.223  1.00  0.00     0.278 C 
ENDBRANCH  33  34
ENDBRANCH   6  28
TORSDOF 6
ENDMDL
MODEL 2
REMARK VINA RESULT:    -8.488      2.096      5.986
REMARK INTER + INTRA:         -11.923
REMARK INTER:                 -12.067
REMARK INTRA:                   0.145
REMARK UNBOUND:                -0.458
REMARK SMILES COc1ccc(/N=c2\[nH]c(=O)n(Cc3nc[nH]n3)c(=O)n2Cc2cc(F)c(F)c(F)c2)cc1
REMARK SMILES IDX 11 1 10 2 9 3 8 4 21 5 7 6 12 7 19 8 20 9 13 11 14 12 18 13
REMARK SMILES IDX 15 14 17 15 16 16 22 18 23 19 24 20 31 21 25 22 29 23 26 24
REMARK SMILES IDX 27 25 30 26 28 27 6 28 5 29 32 30 4 31 33 32 3 33 2 34 1 35
REMARK H PARENT 9 10 17 17
REMARK Flexibility Score: inf
ROOT
ATOM      1  O   UNL     1     -20.980  17.889 -23.254  1.00  0.00    -0.248 OA
ATOM      2  C   UNL     1     -20.674  17.539 -24.441  1.00  0.00     0.332 A 
ATOM      3  N   UNL     1     -20.003  18.374 -25.224  1.00  0.00    -0.277 N 
ATOM      4  C   UNL     1     -19.670  18.009 -26.499  1.00  0.00     0.215 A 
ATOM      5  N   UNL     1     -20.009  16.807 -26.992  1.00  0.00    -0.259 N 
ATOM      6  N   UNL     1     -19.031  18.827 -27.233  1.00  0.00    -0.215 NA
ATOM      7  N   UNL     1     -21.025  16.342 -24.899  1.00  0.00    -0.237 N 
ATOM      8  C   UNL     1     -20.690  15.998 -26.154  1.00  0.00     0.335 A 
ATOM      9  O   UNL     1     -21.048  14.856 -26.532  1.00  0.00    -0.247 OA
ATOM     10  H   UNL     1     -19.721  19.321 -24.872  1.00  0.00     0.175 HD
ENDROOT
BRANCH   7  11
ATOM     11  C   UNL     1     -21.758  15.421 -24.054  1.00  0.00     0.211 C 
BRANCH  11  12
ATOM     12  C   UNL     1     -20.831  14.624 -23.199  1.00  0.00     0.170 A 
ATOM     13  N   UNL     1     -21.159  13.680 -22.303  1.00  0.00    -0.157 NA
ATOM     14  N   UNL     1     -19.502  14.739 -23.202  1.00  0.00    -0.218 NA
ATOM     15  N   UNL     1     -20.046  13.217 -21.759  1.00  0.00    -0.266 N 
ATOM     16  C   UNL     1     -19.019  13.874 -22.318  1.00  0.00     0.216 A 
ATOM     17  H   UNL     1     -20.015  12.470 -21.027  1.00  0.00     0.191 HD
ENDBRANCH  11  12
ENDBRANCH   7  11
BRANCH   5  18
ATOM     18  C   UNL     1     -19.660  16.414 -28.336  1.00  0.00     0.166 C 
BRANCH  18  19
ATOM     19  C   UNL     1     -20.780  16.522 -29.305  1.00  0.00    -0.022 A 
ATOM     20  C   UNL     1     -21.124  17.696 -29.939  1.00  0.00     0.048 A 
ATOM     21  C   UNL     1     -21.555  15.415 -29.630  1.00  0.00     0.048 A 
ATOM     22  C   UNL     1     -22.169  17.769 -30.839  1.00  0.00     0.162 A 
ATOM     23  C   UNL     1     -22.602  15.470 -30.525  1.00  0.00     0.162 A 
ATOM     24  F   UNL     1     -22.482  18.949 -31.449  1.00  0.00    -0.204 F 
ATOM     25  C   UNL     1     -22.929  16.662 -31.149  1.00  0.00     0.194 A 
ATOM     26  F   UNL     1     -23.361  14.390 -30.842  1.00  0.00    -0.204 F 
ATOM     27  F   UNL     1     -23.966  16.728 -32.038  1.00  0.00    -0.200 F 
ENDBRANCH  18  19
ENDBRANCH   5  18
BRANCH   6  28
ATOM     28  C   UNL     1     -18.681  20.100 -26.703  1.00  0.00     0.067 A 
ATOM     29  C   UNL     1     -19.548  20.880 -25.967  1.00  0.00     0.032 A 
ATOM     30  C   UNL     1     -17.406  20.570 -26.941  1.00  0.00     0.032 A 
ATOM     31  C   UNL     1     -19.166  22.109 -25.472  1.00  0.00     0.048 A 
ATOM     32  C   UNL     1     -17.025  21.810 -26.440  1.00  0.00     0.048 A 
ATOM     33  C   UNL     1     -17.885  22.574 -25.716  1.00  0.00     0.119 A 
BRANCH  33  34
ATOM     34  O   UNL     1     -17.532  23.824 -25.200  1.00  0.00    -0.497 OA
ATOM     35  C   UNL     1     -18.354  24.499 -24.283  1.00  0.00     0.278 C 
ENDBRANCH  33  34
ENDBRANCH   6  28
TORSDOF 6
ENDMDL
MODEL 3
REMARK VINA RESULT:    -8.376      3.802      6.526
REMARK INTER + INTRA:         -11.772
REMARK INTER:                 -11.217
REMARK INTRA:                  -0.555
REMARK UNBOUND:                -0.458
REMARK SMILES COc1ccc(/N=c2\[nH]c(=O)n(Cc3nc[nH]n3)c(=O)n2Cc2cc(F)c(F)c(F)c2)cc1
REMARK SMILES IDX 11 1 10 2 9 3 8 4 21 5 7 6 12 7 19 8 20 9 13 11 14 12 18 13
REMARK SMILES IDX 15 14 17 15 16 16 22 18 23 19 24 20 31 21 25 22 29 23 26 24
REMARK SMILES IDX 27 25 30 26 28 27 6 28 5 29 32 30 4 31 33 32 3 33 2 34 1 35
REMARK H PARENT 9 10 17 17
REMARK Flexibility Score: inf
ROOT
ATOM      1  O   UNL     1     -21.576  22.161 -29.942  1.00  0.00    -0.248 OA
ATOM      2  C   UNL     1     -21.064  21.033 -29.637  1.00  0.00     0.332 A 
ATOM      3  N   UNL     1     -20.267  20.932 -28.582  1.00  0.00    -0.277 N 
ATOM      4  C   UNL     1     -19.714  19.727 -28.247  1.00  0.00     0.215 A 
ATOM      5  N   UNL     1     -19.958  18.622 -28.969  1.00  0.00    -0.259 N 
ATOM      6  N   UNL     1     -18.949  19.655 -27.234  1.00  0.00    -0.215 NA
ATOM      7  N   UNL     1     -21.326  19.958 -30.373  1.00  0.00    -0.237 N 
ATOM      8  C   UNL     1     -20.775  18.782 -30.031  1.00  0.00     0.335 A 
ATOM      9  O   UNL     1     -21.057  17.801 -30.762  1.00  0.00    -0.247 OA
ATOM     10  H   UNL     1     -20.054  21.775 -27.994  1.00  0.00     0.175 HD
ENDROOT
BRANCH   7  11
ATOM     11  C   UNL     1     -22.195  20.055 -31.528  1.00  0.00     0.211 C 
BRANCH  11  12
ATOM     12  C   UNL     1     -23.565  19.555 -31.212  1.00  0.00     0.170 A 
ATOM     13  N   UNL     1     -24.317  19.861 -30.144  1.00  0.00    -0.157 NA
ATOM     14  N   UNL     1     -24.261  18.705 -31.970  1.00  0.00    -0.218 NA
ATOM     15  N   UNL     1     -25.463  19.209 -30.240  1.00  0.00    -0.266 N 
ATOM     16  C   UNL     1     -25.427  18.493 -31.373  1.00  0.00     0.216 A 
ATOM     17  H   UNL     1     -26.236  19.269 -29.536  1.00  0.00     0.191 HD
ENDBRANCH  11  12
ENDBRANCH   7  11
BRANCH   5  18
ATOM     18  C   UNL     1     -19.378  17.347 -28.621  1.00  0.00     0.166 C 
BRANCH  18  19
ATOM     19  C   UNL     1     -20.378  16.296 -28.306  1.00  0.00    -0.022 A 
ATOM     20  C   UNL     1     -21.396  16.467 -27.393  1.00  0.00     0.048 A 
ATOM     21  C   UNL     1     -20.336  15.056 -28.932  1.00  0.00     0.048 A 
ATOM     22  C   UNL     1     -22.315  15.473 -27.118  1.00  0.00     0.162 A 
ATOM     23  C   UNL     1     -21.244  14.053 -28.670  1.00  0.00     0.162 A 
ATOM     24  F   UNL     1     -23.311  15.677 -26.208  1.00  0.00    -0.204 F 
ATOM     25  C   UNL     1     -22.258  14.249 -27.749  1.00  0.00     0.194 A 
ATOM     26  F   UNL     1     -21.204  12.841 -29.281  1.00  0.00    -0.204 F 
ATOM     27  F   UNL     1     -23.164  13.260 -27.481  1.00  0.00    -0.200 F 
ENDBRANCH  18  19
ENDBRANCH   5  18
BRANCH   6  28
ATOM     28  C   UNL     1     -18.692  20.833 -26.479  1.00  0.00     0.067 A 
ATOM     29  C   UNL     1     -19.539  21.306 -25.500  1.00  0.00     0.032 A 
ATOM     30  C   UNL     1     -17.532  21.531 -26.747  1.00  0.00     0.032 A 
ATOM     31  C   UNL     1     -19.249  22.454 -24.791  1.00  0.00     0.048 A 
ATOM     32  C   UNL     1     -17.244  22.688 -26.031  1.00  0.00     0.048 A 
ATOM     33  C   UNL     1     -18.084  23.149 -25.066  1.00  0.00     0.119 A 
BRANCH  33  34
ATOM     34  O   UNL     1     -17.822  24.307 -24.330  1.00  0.00    -0.497 OA
ATOM     35  C   UNL     1     -18.857  25.147 -23.890  1.00  0.00     0.278 C 
ENDBRANCH  33  34
ENDBRANCH   6  28
TORSDOF 6
ENDMDL
MODEL 4
REMARK VINA RESULT:    -8.253      3.281      6.319
REMARK INTER + INTRA:         -11.605
REMARK INTER:                 -11.109
REMARK INTRA:                  -0.496
REMARK UNBOUND:                -0.458
REMARK SMILES COc1ccc(/N=c2\[nH]c(=O)n(Cc3nc[nH]n3)c(=O)n2Cc2cc(F)c(F)c(F)c2)cc1
REMARK SMILES IDX 11 1 10 2 9 3 8 4 21 5 7 6 12 7 19 8 20 9 13 11 14 12 18 13
REMARK SMILES IDX 15 14 17 15 16 16 22 18 23 19 24 20 31 21 25 22 29 23 26 24
REMARK SMILES IDX 27 25 30 26 28 27 6 28 5 29 32 30 4 31 33 32 3 33 2 34 1 35
REMARK H PARENT 9 10 17 17
REMARK Flexibility Score: inf
ROOT
ATOM      1  O   UNL     1     -18.939  21.995 -28.844  1.00  0.00    -0.248 OA
ATOM      2  C   UNL     1     -19.505  21.042 -28.215  1.00  0.00     0.332 A 
ATOM      3  N   UNL     1     -20.676  20.577 -28.632  1.00  0.00    -0.277 N 
ATOM      4  C   UNL     1     -21.291  19.555 -27.964  1.00  0.00     0.215 A 
ATOM      5  N   UNL     1     -20.736  18.997 -26.877  1.00  0.00    -0.259 N 
ATOM      6  N   UNL     1     -22.415  19.129 -28.379  1.00  0.00    -0.215 NA
ATOM      7  N   UNL     1     -18.929  20.511 -27.141  1.00  0.00    -0.237 N 
ATOM      8  C   UNL     1     -19.547  19.508 -26.496  1.00  0.00     0.335 A 
ATOM      9  O   UNL     1     -18.955  19.046 -25.489  1.00  0.00    -0.247 OA
ATOM     10  H   UNL     1     -21.139  20.989 -29.478  1.00  0.00     0.175 HD
ENDROOT
BRANCH   7  11
ATOM     11  C   UNL     1     -17.651  21.009 -26.674  1.00  0.00     0.211 C 
BRANCH  11  12
ATOM     12  C   UNL     1     -17.828  22.212 -25.810  1.00  0.00     0.170 A 
ATOM     13  N   UNL     1     -16.897  23.119 -25.475  1.00  0.00    -0.157 NA
ATOM     14  N   UNL     1     -18.973  22.570 -25.225  1.00  0.00    -0.218 NA
ATOM     15  N   UNL     1     -17.459  24.026 -24.695  1.00  0.00    -0.266 N 
ATOM     16  C   UNL     1     -18.747  23.684 -24.541  1.00  0.00     0.216 A 
ATOM     17  H   UNL     1     -16.955  24.850 -24.291  1.00  0.00     0.191 HD
ENDBRANCH  11  12
ENDBRANCH   7  11
BRANCH   5  18
ATOM     18  C   UNL     1     -21.380  17.918 -26.168  1.00  0.00     0.166 C 
BRANCH  18  19
ATOM     19  C   UNL     1     -21.227  16.593 -26.819  1.00  0.00    -0.022 A 
ATOM     20  C   UNL     1     -20.066  16.180 -27.436  1.00  0.00     0.048 A 
ATOM     21  C   UNL     1     -22.275  15.680 -26.839  1.00  0.00     0.048 A 
ATOM     22  C   UNL     1     -19.950  14.940 -28.035  1.00  0.00     0.162 A 
ATOM     23  C   UNL     1     -22.177  14.439 -27.432  1.00  0.00     0.162 A 
ATOM     24  F   UNL     1     -18.785  14.564 -28.636  1.00  0.00    -0.204 F 
ATOM     25  C   UNL     1     -21.000  14.047 -28.046  1.00  0.00     0.194 A 
ATOM     26  F   UNL     1     -23.200  13.546 -27.454  1.00  0.00    -0.204 F 
ATOM     27  F   UNL     1     -20.891  12.819 -28.637  1.00  0.00    -0.200 F 
ENDBRANCH  18  19
ENDBRANCH   5  18
BRANCH   6  28
ATOM     28  C   UNL     1     -22.998  19.732 -29.529  1.00  0.00     0.067 A 
ATOM     29  C   UNL     1     -23.765  20.876 -29.480  1.00  0.00     0.032 A 
ATOM     30  C   UNL     1     -22.778  19.133 -30.753  1.00  0.00     0.032 A 
ATOM     31  C   UNL     1     -24.311  21.426 -30.621  1.00  0.00     0.048 A 
ATOM     32  C   UNL     1     -23.329  19.690 -31.901  1.00  0.00     0.048 A 
ATOM     33  C   UNL     1     -24.085  20.819 -31.845  1.00  0.00     0.119 A 
BRANCH  33  34
ATOM     34  O   UNL     1     -24.654  21.403 -32.980  1.00  0.00    -0.497 OA
ATOM     35  C   UNL     1     -25.982  21.145 -33.353  1.00  0.00     0.278 C 
ENDBRANCH  33  34
ENDBRANCH   6  28
TORSDOF 6
ENDMDL
MODEL 5
REMARK VINA RESULT:    -8.239      3.776      6.567
REMARK INTER + INTRA:         -11.587
REMARK INTER:                 -10.980
REMARK INTRA:                  -0.606
REMARK UNBOUND:                -0.458
REMARK SMILES COc1ccc(/N=c2\[nH]c(=O)n(Cc3nc[nH]n3)c(=O)n2Cc2cc(F)c(F)c(F)c2)cc1
REMARK SMILES IDX 11 1 10 2 9 3 8 4 21 5 7 6 12 7 19 8 20 9 13 11 14 12 18 13
REMARK SMILES IDX 15 14 17 15 16 16 22 18 23 19 24 20 31 21 25 22 29 23 26 24
REMARK SMILES IDX 27 25 30 26 28 27 6 28 5 29 32 30 4 31 33 32 3 33 2 34 1 35
REMARK H PARENT 9 10 17 17
REMARK Flexibility Score: inf
ROOT
ATOM      1  O   UNL     1     -21.656  22.301 -29.851  1.00  0.00    -0.248 OA
ATOM      2  C   UNL     1     -21.122  21.180 -29.561  1.00  0.00     0.332 A 
ATOM      3  N   UNL     1     -20.346  21.074 -28.490  1.00  0.00    -0.277 N 
ATOM      4  C   UNL     1     -19.768  19.877 -28.171  1.00  0.00     0.215 A 
ATOM      5  N   UNL     1     -19.967  18.783 -28.924  1.00  0.00    -0.259 N 
ATOM      6  N   UNL     1     -19.025  19.800 -27.143  1.00  0.00    -0.215 NA
ATOM      7  N   UNL     1     -21.338  20.116 -30.327  1.00  0.00    -0.237 N 
ATOM      8  C   UNL     1     -20.764  18.946 -30.000  1.00  0.00     0.335 A 
ATOM      9  O   UNL     1     -21.004  17.976 -30.760  1.00  0.00    -0.247 OA
ATOM     10  H   UNL     1     -20.168  21.908 -27.879  1.00  0.00     0.175 HD
ENDROOT
BRANCH   7  11
ATOM     11  C   UNL     1     -22.184  20.218 -31.500  1.00  0.00     0.211 C 
BRANCH  11  12
ATOM     12  C   UNL     1     -23.549  19.685 -31.224  1.00  0.00     0.170 A 
ATOM     13  N   UNL     1     -24.357  20.005 -30.200  1.00  0.00    -0.157 NA
ATOM     14  N   UNL     1     -24.185  18.785 -31.977  1.00  0.00    -0.218 NA
ATOM     15  N   UNL     1     -25.477  19.312 -30.321  1.00  0.00    -0.266 N 
ATOM     16  C   UNL     1     -25.369  18.556 -31.423  1.00  0.00     0.216 A 
ATOM     17  H   UNL     1     -26.281  19.373 -29.653  1.00  0.00     0.191 HD
ENDBRANCH  11  12
ENDBRANCH   7  11
BRANCH   5  18
ATOM     18  C   UNL     1     -19.362  17.516 -28.592  1.00  0.00     0.166 C 
BRANCH  18  19
ATOM     19  C   UNL     1     -20.341  16.441 -28.291  1.00  0.00    -0.022 A 
ATOM     20  C   UNL     1     -20.341  15.216 -28.922  1.00  0.00     0.048 A 
ATOM     21  C   UNL     1     -21.330  16.622 -27.331  1.00  0.00     0.048 A 
ATOM     22  C   UNL     1     -21.263  14.233 -28.622  1.00  0.00     0.162 A 
ATOM     23  C   UNL     1     -22.258  15.651 -27.019  1.00  0.00     0.162 A 
ATOM     24  F   UNL     1     -21.233  13.031 -29.267  1.00  0.00    -0.204 F 
ATOM     25  C   UNL     1     -22.238  14.429 -27.668  1.00  0.00     0.194 A 
ATOM     26  F   UNL     1     -23.225  15.826 -26.083  1.00  0.00    -0.204 F 
ATOM     27  F   UNL     1     -23.153  13.459 -27.367  1.00  0.00    -0.200 F 
ENDBRANCH  18  19
ENDBRANCH   5  18
BRANCH   6  28
ATOM     28  C   UNL     1     -18.816  20.966 -26.355  1.00  0.00     0.067 A 
ATOM     29  C   UNL     1     -19.637  21.334 -25.311  1.00  0.00     0.032 A 
ATOM     30  C   UNL     1     -17.732  21.765 -26.659  1.00  0.00     0.032 A 
ATOM     31  C   UNL     1     -19.396  22.474 -24.572  1.00  0.00     0.048 A 
ATOM     32  C   UNL     1     -17.492  22.913 -25.913  1.00  0.00     0.048 A 
ATOM     33  C   UNL     1     -18.307  23.270 -24.884  1.00  0.00     0.119 A 
BRANCH  33  34
ATOM     34  O   UNL     1     -18.093  24.417 -24.116  1.00  0.00    -0.497 OA
ATOM     35  C   UNL     1     -19.153  25.087 -23.484  1.00  0.00     0.278 C 
ENDBRANCH  33  34
ENDBRANCH   6  28
TORSDOF 6
ENDMDL
