MODEL 1
REMARK VINA RESULT:    -8.645      0.000      0.000
REMARK INTER + INTRA:         -12.213
REMARK INTER:                 -11.470
REMARK INTRA:                  -0.743
REMARK UNBOUND:                -1.042
REMARK SMILES CNC(=O)Cn1c(=O)[nH]/c(=N\c2cc3cn(C)nc3cc2Cl)n(Cc2cc(F)c(F)c(F)c2)c1=O
REMARK SMILES IDX 8 1 7 2 9 3 10 4 23 5 11 6 6 7 34 8 35 9 5 11 3 12 2 13 4 14
REMARK SMILES IDX 1 15 24 17 25 18 26 19 33 20 27 21 31 22 28 23 29 24 32 25
REMARK SMILES IDX 30 26 12 27 13 28 21 29 14 30 20 31 22 32 15 33 19 34 16 35
REMARK SMILES IDX 18 36 17 37
REMARK H PARENT 9 10 2 16
REMARK Flexibility Score: inf
ROOT
ATOM      1  O   UNL     1     -20.261  18.324 -21.488  1.00  0.00    -0.248 OA
ATOM      2  C   UNL     1     -20.774  18.057 -22.606  1.00  0.00     0.332 A 
ATOM      3  N   UNL     1     -20.522  18.922 -23.634  1.00  0.00    -0.277 N 
ATOM      4  C   UNL     1     -21.050  18.673 -24.843  1.00  0.00     0.216 A 
ATOM      5  N   UNL     1     -21.822  17.589 -25.059  1.00  0.00    -0.259 N 
ATOM      6  N   UNL     1     -20.775  19.527 -25.798  1.00  0.00    -0.213 NA
ATOM      7  N   UNL     1     -21.543  16.976 -22.824  1.00  0.00    -0.236 N 
ATOM      8  C   UNL     1     -22.074  16.725 -24.035  1.00  0.00     0.335 A 
ATOM      9  O   UNL     1     -22.792  15.699 -24.207  1.00  0.00    -0.247 OA
ATOM     10  H   UNL     1     -19.927  19.769 -23.492  1.00  0.00     0.175 HD
ENDROOT
BRANCH   7  11
ATOM     11  C   UNL     1     -21.803  16.076 -21.748  1.00  0.00     0.232 C 
BRANCH  11  12
ATOM     12  C   UNL     1     -20.963  14.870 -21.757  1.00  0.00     0.240 C 
ATOM     13  N   UNL     1     -19.552  15.039 -21.778  1.00  0.00    -0.358 N 
ATOM     14  O   UNL     1     -21.400  13.691 -21.747  1.00  0.00    -0.273 OA
ATOM     15  C   UNL     1     -18.676  13.883 -21.789  1.00  0.00     0.142 C 
ATOM     16  H   UNL     1     -19.090  15.979 -21.788  1.00  0.00     0.163 HD
ENDBRANCH  11  12
ENDBRANCH   7  11
BRANCH   5  17
ATOM     17  C   UNL     1     -22.391  17.308 -26.338  1.00  0.00     0.166 C 
BRANCH  17  18
ATOM     18  C   UNL     1     -21.777  16.198 -27.082  1.00  0.00    -0.022 A 
ATOM     19  C   UNL     1     -20.482  16.336 -27.540  1.00  0.00     0.048 A 
ATOM     20  C   UNL     1     -22.400  15.015 -27.360  1.00  0.00     0.048 A 
ATOM     21  C   UNL     1     -19.859  15.302 -28.251  1.00  0.00     0.162 A 
ATOM     22  C   UNL     1     -21.821  13.962 -28.063  1.00  0.00     0.162 A 
ATOM     23  F   UNL     1     -18.592  15.430 -28.702  1.00  0.00    -0.204 F 
ATOM     24  C   UNL     1     -20.529  14.127 -28.508  1.00  0.00     0.194 A 
ATOM     25  F   UNL     1     -22.514  12.810 -28.299  1.00  0.00    -0.204 F 
ATOM     26  F   UNL     1     -19.893  13.132 -29.207  1.00  0.00    -0.200 F 
ENDBRANCH  17  18
ENDBRANCH   5  17
BRANCH   6  27
ATOM     27  C   UNL     1     -19.959  20.665 -25.584  1.00  0.00     0.086 A 
ATOM     28  C   UNL     1     -20.324  21.686 -24.741  1.00  0.00     0.042 A 
ATOM     29  C   UNL     1     -18.757  20.745 -26.248  1.00  0.00     0.069 A 
ATOM     30  C   UNL     1     -19.534  22.800 -24.527  1.00  0.00     0.022 A 
ATOM     31  C   UNL     1     -17.962  21.867 -26.032  1.00  0.00     0.053 A 
ATOM     32  Cl  UNL     1     -18.211  19.483 -27.345  1.00  0.00    -0.082 Cl
ATOM     33  C   UNL     1     -19.627  23.948 -23.768  1.00  0.00     0.117 A 
ATOM     34  C   UNL     1     -18.319  22.889 -25.192  1.00  0.00     0.094 A 
ATOM     35  N   UNL     1     -18.522  24.694 -23.966  1.00  0.00    -0.275 N 
ATOM     36  N   UNL     1     -17.751  24.062 -24.811  1.00  0.00    -0.173 NA
ATOM     37  C   UNL     1     -18.261  25.986 -23.330  1.00  0.00     0.173 C 
ENDBRANCH   6  27
TORSDOF 5
ENDMDL
MODEL 2
REMARK VINA RESULT:    -8.552      3.897      5.846
REMARK INTER + INTRA:         -12.094
REMARK INTER:                 -10.862
REMARK INTRA:                  -1.232
REMARK UNBOUND:                -1.042
REMARK SMILES CNC(=O)Cn1c(=O)[nH]/c(=N\c2cc3cn(C)nc3cc2Cl)n(Cc2cc(F)c(F)c(F)c2)c1=O
REMARK SMILES IDX 8 1 7 2 9 3 10 4 23 5 11 6 6 7 34 8 35 9 5 11 3 12 2 13 4 14
REMARK SMILES IDX 1 15 24 17 25 18 26 19 33 20 27 21 31 22 28 23 29 24 32 25
REMARK SMILES IDX 30 26 12 27 13 28 21 29 14 30 20 31 22 32 15 33 19 34 16 35
REMARK SMILES IDX 18 36 17 37
REMARK H PARENT 9 10 2 16
REMARK Flexibility Score: inf
ROOT
ATOM      1  O   UNL     1     -22.117  22.294 -29.757  1.00  0.00    -0.248 OA
ATOM      2  C   UNL     1     -21.542  21.198 -29.526  1.00  0.00     0.332 A 
ATOM      3  N   UNL     1     -20.929  21.057 -28.312  1.00  0.00    -0.277 N 
ATOM      4  C   UNL     1     -20.305  19.903 -28.025  1.00  0.00     0.216 A 
ATOM      5  N   UNL     1     -20.272  18.887 -28.911  1.00  0.00    -0.259 N 
ATOM      6  N   UNL     1     -19.737  19.812 -26.849  1.00  0.00    -0.213 NA
ATOM      7  N   UNL     1     -21.509  20.184 -30.406  1.00  0.00    -0.236 N 
ATOM      8  C   UNL     1     -20.884  19.026 -30.121  1.00  0.00     0.335 A 
ATOM      9  O   UNL     1     -20.873  18.091 -30.972  1.00  0.00    -0.247 OA
ATOM     10  H   UNL     1     -20.939  21.829 -27.609  1.00  0.00     0.175 HD
ENDROOT
BRANCH   7  11
ATOM     11  C   UNL     1     -22.151  20.336 -31.672  1.00  0.00     0.232 C 
BRANCH  11  12
ATOM     12  C   UNL     1     -23.525  19.817 -31.715  1.00  0.00     0.240 C 
ATOM     13  N   UNL     1     -23.724  18.497 -32.202  1.00  0.00    -0.358 N 
ATOM     14  O   UNL     1     -24.546  20.456 -31.353  1.00  0.00    -0.273 OA
ATOM     15  C   UNL     1     -25.060  17.934 -32.268  1.00  0.00     0.142 C 
ATOM     16  H   UNL     1     -22.940  17.884 -32.529  1.00  0.00     0.163 HD
ENDBRANCH  11  12
ENDBRANCH   7  11
BRANCH   5  17
ATOM     17  C   UNL     1     -19.615  17.653 -28.623  1.00  0.00     0.166 C 
BRANCH  17  18
ATOM     18  C   UNL     1     -20.494  16.515 -28.316  1.00  0.00    -0.022 A 
ATOM     19  C   UNL     1     -20.265  15.306 -28.941  1.00  0.00     0.048 A 
ATOM     20  C   UNL     1     -21.541  16.560 -27.440  1.00  0.00     0.048 A 
ATOM     21  C   UNL     1     -21.078  14.196 -28.676  1.00  0.00     0.162 A 
ATOM     22  C   UNL     1     -22.374  15.485 -27.147  1.00  0.00     0.162 A 
ATOM     23  F   UNL     1     -20.860  13.010 -29.284  1.00  0.00    -0.204 F 
ATOM     24  C   UNL     1     -22.123  14.292 -27.785  1.00  0.00     0.194 A 
ATOM     25  F   UNL     1     -23.401  15.615 -26.257  1.00  0.00    -0.204 F 
ATOM     26  F   UNL     1     -22.902  13.188 -27.545  1.00  0.00    -0.200 F 
ENDBRANCH  17  18
ENDBRANCH   5  17
BRANCH   6  27
ATOM     27  C   UNL     1     -19.772  20.871 -25.907  1.00  0.00     0.086 A 
ATOM     28  C   UNL     1     -18.859  21.897 -25.919  1.00  0.00     0.042 A 
ATOM     29  C   UNL     1     -20.758  20.865 -24.949  1.00  0.00     0.069 A 
ATOM     30  C   UNL     1     -18.886  22.933 -25.005  1.00  0.00     0.022 A 
ATOM     31  C   UNL     1     -20.785  21.909 -24.028  1.00  0.00     0.053 A 
ATOM     32  Cl  UNL     1     -21.968  19.590 -24.861  1.00  0.00    -0.082 Cl
ATOM     33  C   UNL     1     -18.133  24.065 -24.770  1.00  0.00     0.117 A 
ATOM     34  C   UNL     1     -19.878  22.936 -24.033  1.00  0.00     0.094 A 
ATOM     35  N   UNL     1     -18.646  24.718 -23.708  1.00  0.00    -0.275 N 
ATOM     36  N   UNL     1     -19.679  24.045 -23.276  1.00  0.00    -0.173 NA
ATOM     37  C   UNL     1     -18.113  25.966 -23.158  1.00  0.00     0.173 C 
ENDBRANCH   6  27
TORSDOF 5
ENDMDL
MODEL 3
REMARK VINA RESULT:    -8.522      3.894      5.679
REMARK INTER + INTRA:         -12.054
REMARK INTER:                 -11.218
REMARK INTRA:                  -0.836
REMARK UNBOUND:                -1.042
REMARK SMILES CNC(=O)Cn1c(=O)[nH]/c(=N\c2cc3cn(C)nc3cc2Cl)n(Cc2cc(F)c(F)c(F)c2)c1=O
REMARK SMILES IDX 8 1 7 2 9 3 10 4 23 5 11 6 6 7 34 8 35 9 5 11 3 12 2 13 4 14
REMARK SMILES IDX 1 15 24 17 25 18 26 19 33 20 27 21 31 22 28 23 29 24 32 25
REMARK SMILES IDX 30 26 12 27 13 28 21 29 14 30 20 31 22 32 15 33 19 34 16 35
REMARK SMILES IDX 18 36 17 37
REMARK H PARENT 9 10 2 16
REMARK Flexibility Score: inf
ROOT
ATOM      1  O   UNL     1     -21.808  22.289 -29.872  1.00  0.00    -0.248 OA
ATOM      2  C   UNL     1     -21.280  21.186 -29.573  1.00  0.00     0.332 A 
ATOM      3  N   UNL     1     -20.549  21.133 -28.419  1.00  0.00    -0.277 N 
ATOM      4  C   UNL     1     -19.969  19.976 -28.064  1.00  0.00     0.216 A 
ATOM      5  N   UNL     1     -20.095  18.869 -28.824  1.00  0.00    -0.259 N 
ATOM      6  N   UNL     1     -19.285  19.973 -26.947  1.00  0.00    -0.213 NA
ATOM      7  N   UNL     1     -21.404  20.081 -30.329  1.00  0.00    -0.236 N 
ATOM      8  C   UNL     1     -20.823  18.919 -29.975  1.00  0.00     0.335 A 
ATOM      9  O   UNL     1     -20.961  17.898 -30.708  1.00  0.00    -0.247 OA
ATOM     10  H   UNL     1     -20.437  21.977 -27.814  1.00  0.00     0.175 HD
ENDROOT
BRANCH   7  11
ATOM     11  C   UNL     1     -22.167  20.141 -31.533  1.00  0.00     0.232 C 
BRANCH  11  12
ATOM     12  C   UNL     1     -23.542  19.638 -31.398  1.00  0.00     0.240 C 
ATOM     13  N   UNL     1     -23.847  18.371 -31.964  1.00  0.00    -0.358 N 
ATOM     14  O   UNL     1     -24.476  20.247 -30.817  1.00  0.00    -0.273 OA
ATOM     15  C   UNL     1     -25.188  17.827 -31.862  1.00  0.00     0.142 C 
ATOM     16  H   UNL     1     -23.141  17.785 -32.469  1.00  0.00     0.163 HD
ENDBRANCH  11  12
ENDBRANCH   7  11
BRANCH   5  17
ATOM     17  C   UNL     1     -19.486  17.630 -28.461  1.00  0.00     0.166 C 
BRANCH  17  18
ATOM     18  C   UNL     1     -20.410  16.519 -28.187  1.00  0.00    -0.022 A 
ATOM     19  C   UNL     1     -20.197  15.304 -28.805  1.00  0.00     0.048 A 
ATOM     20  C   UNL     1     -21.484  16.596 -27.347  1.00  0.00     0.048 A 
ATOM     21  C   UNL     1     -21.053  14.219 -28.570  1.00  0.00     0.162 A 
ATOM     22  C   UNL     1     -22.360  15.546 -27.084  1.00  0.00     0.162 A 
ATOM     23  F   UNL     1     -20.850  13.027 -29.172  1.00  0.00    -0.204 F 
ATOM     24  C   UNL     1     -22.124  14.347 -27.715  1.00  0.00     0.194 A 
ATOM     25  F   UNL     1     -23.413  15.708 -26.230  1.00  0.00    -0.204 F 
ATOM     26  F   UNL     1     -22.944  13.267 -27.504  1.00  0.00    -0.200 F 
ENDBRANCH  17  18
ENDBRANCH   5  17
BRANCH   6  27
ATOM     27  C   UNL     1     -19.153  21.128 -26.137  1.00  0.00     0.086 A 
ATOM     28  C   UNL     1     -20.060  21.448 -25.156  1.00  0.00     0.042 A 
ATOM     29  C   UNL     1     -18.076  21.956 -26.346  1.00  0.00     0.069 A 
ATOM     30  C   UNL     1     -19.938  22.573 -24.362  1.00  0.00     0.022 A 
ATOM     31  C   UNL     1     -17.954  23.089 -25.547  1.00  0.00     0.053 A 
ATOM     32  Cl  UNL     1     -16.867  21.623 -27.581  1.00  0.00    -0.082 Cl
ATOM     33  C   UNL     1     -20.661  23.140 -23.333  1.00  0.00     0.117 A 
ATOM     34  C   UNL     1     -18.854  23.415 -24.566  1.00  0.00     0.094 A 
ATOM     35  N   UNL     1     -20.041  24.270 -22.935  1.00  0.00    -0.275 N 
ATOM     36  N   UNL     1     -18.972  24.427 -23.669  1.00  0.00    -0.173 NA
ATOM     37  C   UNL     1     -20.512  25.147 -21.862  1.00  0.00     0.173 C 
ENDBRANCH   6  27
TORSDOF 5
ENDMDL
MODEL 4
REMARK VINA RESULT:    -8.481      3.869      7.138
REMARK INTER + INTRA:         -12.002
REMARK INTER:                 -11.412
REMARK INTRA:                  -0.590
REMARK UNBOUND:                -1.042
REMARK SMILES CNC(=O)Cn1c(=O)[nH]/c(=N\c2cc3cn(C)nc3cc2Cl)n(Cc2cc(F)c(F)c(F)c2)c1=O
REMARK SMILES IDX 8 1 7 2 9 3 10 4 23 5 11 6 6 7 34 8 35 9 5 11 3 12 2 13 4 14
REMARK SMILES IDX 1 15 24 17 25 18 26 19 33 20 27 21 31 22 28 23 29 24 32 25
REMARK SMILES IDX 30 26 12 27 13 28 21 29 14 30 20 31 22 32 15 33 19 34 16 35
REMARK SMILES IDX 18 36 17 37
REMARK H PARENT 9 10 2 16
REMARK Flexibility Score: inf
ROOT
ATOM      1  O   UNL     1     -17.899  19.611 -26.654  1.00  0.00    -0.248 OA
ATOM      2  C   UNL     1     -19.087  19.560 -27.068  1.00  0.00     0.332 A 
ATOM      3  N   UNL     1     -19.833  18.477 -26.698  1.00  0.00    -0.277 N 
ATOM      4  C   UNL     1     -21.105  18.384 -27.117  1.00  0.00     0.216 A 
ATOM      5  N   UNL     1     -21.655  19.338 -27.896  1.00  0.00    -0.259 N 
ATOM      6  N   UNL     1     -21.782  17.332 -26.732  1.00  0.00    -0.213 NA
ATOM      7  N   UNL     1     -19.638  20.510 -27.843  1.00  0.00    -0.236 N 
ATOM      8  C   UNL     1     -20.913  20.420 -28.265  1.00  0.00     0.335 A 
ATOM      9  O   UNL     1     -21.401  21.332 -28.992  1.00  0.00    -0.247 OA
ATOM     10  H   UNL     1     -19.430  17.724 -26.096  1.00  0.00     0.175 HD
ENDROOT
BRANCH   7  11
ATOM     11  C   UNL     1     -18.855  21.640 -28.226  1.00  0.00     0.232 C 
BRANCH  11  12
ATOM     12  C   UNL     1     -18.139  22.281 -27.114  1.00  0.00     0.240 C 
ATOM     13  N   UNL     1     -16.723  22.160 -27.074  1.00  0.00    -0.358 N 
ATOM     14  O   UNL     1     -18.686  22.932 -26.188  1.00  0.00    -0.273 OA
ATOM     15  C   UNL     1     -15.966  22.772 -25.998  1.00  0.00     0.142 C 
ATOM     16  H   UNL     1     -16.173  21.638 -27.796  1.00  0.00     0.163 HD
ENDBRANCH  11  12
ENDBRANCH   7  11
BRANCH   5  17
ATOM     17  C   UNL     1     -23.006  19.257 -28.350  1.00  0.00     0.166 C 
BRANCH  17  18
ATOM     18  C   UNL     1     -23.202  18.636 -29.669  1.00  0.00    -0.022 A 
ATOM     19  C   UNL     1     -23.938  19.310 -30.622  1.00  0.00     0.048 A 
ATOM     20  C   UNL     1     -22.701  17.419 -30.033  1.00  0.00     0.048 A 
ATOM     21  C   UNL     1     -24.147  18.755 -31.892  1.00  0.00     0.162 A 
ATOM     22  C   UNL     1     -22.884  16.829 -31.280  1.00  0.00     0.162 A 
ATOM     23  F   UNL     1     -24.866  19.409 -32.830  1.00  0.00    -0.204 F 
ATOM     24  C   UNL     1     -23.621  17.523 -32.211  1.00  0.00     0.194 A 
ATOM     25  F   UNL     1     -22.347  15.606 -31.563  1.00  0.00    -0.204 F 
ATOM     26  F   UNL     1     -23.842  17.005 -33.462  1.00  0.00    -0.200 F 
ENDBRANCH  17  18
ENDBRANCH   5  17
BRANCH   6  27
ATOM     27  C   UNL     1     -21.216  16.327 -25.908  1.00  0.00     0.086 A 
ATOM     28  C   UNL     1     -21.188  16.425 -24.539  1.00  0.00     0.042 A 
ATOM     29  C   UNL     1     -20.675  15.214 -26.509  1.00  0.00     0.069 A 
ATOM     30  C   UNL     1     -20.637  15.450 -23.729  1.00  0.00     0.022 A 
ATOM     31  C   UNL     1     -20.121  14.232 -25.693  1.00  0.00     0.053 A 
ATOM     32  Cl  UNL     1     -20.668  15.006 -28.256  1.00  0.00    -0.082 Cl
ATOM     33  C   UNL     1     -20.467  15.272 -22.372  1.00  0.00     0.117 A 
ATOM     34  C   UNL     1     -20.089  14.323 -24.326  1.00  0.00     0.094 A 
ATOM     35  N   UNL     1     -19.846  14.094 -22.161  1.00  0.00    -0.275 N 
ATOM     36  N   UNL     1     -19.625  13.537 -23.322  1.00  0.00    -0.173 NA
ATOM     37  C   UNL     1     -19.493  13.560 -20.845  1.00  0.00     0.173 C 
ENDBRANCH   6  27
TORSDOF 5
ENDMDL
MODEL 5
REMARK VINA RESULT:    -8.347      4.923      7.465
REMARK INTER + INTRA:         -11.828
REMARK INTER:                 -10.833
REMARK INTRA:                  -0.995
REMARK UNBOUND:                -1.042
REMARK SMILES CNC(=O)Cn1c(=O)[nH]/c(=N\c2cc3cn(C)nc3cc2Cl)n(Cc2cc(F)c(F)c(F)c2)c1=O
REMARK SMILES IDX 8 1 7 2 9 3 10 4 23 5 11 6 6 7 34 8 35 9 5 11 3 12 2 13 4 14
REMARK SMILES IDX 1 15 24 17 25 18 26 19 33 20 27 21 31 22 28 23 29 24 32 25
REMARK SMILES IDX 30 26 12 27 13 28 21 29 14 30 20 31 22 32 15 33 19 34 16 35
REMARK SMILES IDX 18 36 17 37
REMARK H PARENT 9 10 2 16
REMARK Flexibility Score: inf
ROOT
ATOM      1  O   UNL     1     -21.297  15.984 -30.393  1.00  0.00    -0.248 OA
ATOM      2  C   UNL     1     -21.194  16.652 -29.330  1.00  0.00     0.332 A 
ATOM      3  N   UNL     1     -21.613  17.952 -29.364  1.00  0.00    -0.277 N 
ATOM      4  C   UNL     1     -21.520  18.699 -28.252  1.00  0.00     0.216 A 
ATOM      5  N   UNL     1     -21.022  18.189 -27.108  1.00  0.00    -0.259 N 
ATOM      6  N   UNL     1     -21.940  19.937 -28.332  1.00  0.00    -0.213 NA
ATOM      7  N   UNL     1     -20.699  16.146 -28.188  1.00  0.00    -0.236 N 
ATOM      8  C   UNL     1     -20.605  16.892 -27.072  1.00  0.00     0.335 A 
ATOM      9  O   UNL     1     -20.135  16.384 -26.013  1.00  0.00    -0.247 OA
ATOM     10  H   UNL     1     -22.001  18.371 -30.239  1.00  0.00     0.175 HD
ENDROOT
BRANCH   7  11
ATOM     11  C   UNL     1     -20.263  14.787 -28.157  1.00  0.00     0.232 C 
BRANCH  11  12
ATOM     12  C   UNL     1     -21.356  13.804 -28.172  1.00  0.00     0.240 C 
ATOM     13  N   UNL     1     -21.583  13.078 -29.372  1.00  0.00    -0.358 N 
ATOM     14  O   UNL     1     -22.111  13.555 -27.197  1.00  0.00    -0.273 OA
ATOM     15  C   UNL     1     -22.650  12.096 -29.443  1.00  0.00     0.142 C 
ATOM     16  H   UNL     1     -21.011  13.212 -30.238  1.00  0.00     0.163 HD
ENDBRANCH  11  12
ENDBRANCH   7  11
BRANCH   5  17
ATOM     17  C   UNL     1     -20.917  18.967 -25.916  1.00  0.00     0.166 C 
BRANCH  17  18
ATOM     18  C   UNL     1     -19.859  19.988 -25.908  1.00  0.00    -0.022 A 
ATOM     19  C   UNL     1     -20.033  21.126 -25.147  1.00  0.00     0.048 A 
ATOM     20  C   UNL     1     -18.690  19.896 -26.609  1.00  0.00     0.048 A 
ATOM     21  C   UNL     1     -19.049  22.123 -25.110  1.00  0.00     0.162 A 
ATOM     22  C   UNL     1     -17.686  20.860 -26.603  1.00  0.00     0.162 A 
ATOM     23  F   UNL     1     -19.212  23.239 -24.367  1.00  0.00    -0.204 F 
ATOM     24  C   UNL     1     -17.887  21.984 -25.835  1.00  0.00     0.194 A 
ATOM     25  F   UNL     1     -16.546  20.690 -27.334  1.00  0.00    -0.204 F 
ATOM     26  F   UNL     1     -16.941  22.976 -25.780  1.00  0.00    -0.200 F 
ENDBRANCH  17  18
ENDBRANCH   5  17
BRANCH   6  27
ATOM     27  C   UNL     1     -22.471  20.481 -29.528  1.00  0.00     0.086 A 
ATOM     28  C   UNL     1     -23.726  20.164 -29.988  1.00  0.00     0.042 A 
ATOM     29  C   UNL     1     -21.697  21.357 -30.251  1.00  0.00     0.069 A 
ATOM     30  C   UNL     1     -24.252  20.690 -31.153  1.00  0.00     0.022 A 
ATOM     31  C   UNL     1     -22.226  21.886 -31.425  1.00  0.00     0.053 A 
ATOM     32  Cl  UNL     1     -20.079  21.818 -29.736  1.00  0.00    -0.082 Cl
ATOM     33  C   UNL     1     -25.438  20.567 -31.847  1.00  0.00     0.117 A 
ATOM     34  C   UNL     1     -23.478  21.576 -31.890  1.00  0.00     0.094 A 
ATOM     35  N   UNL     1     -25.381  21.341 -32.949  1.00  0.00    -0.275 N 
ATOM     36  N   UNL     1     -24.217  21.935 -32.969  1.00  0.00    -0.173 NA
ATOM     37  C   UNL     1     -26.455  21.470 -33.935  1.00  0.00     0.173 C 
ENDBRANCH   6  27
TORSDOF 5
ENDMDL
