MODEL 1
REMARK VINA RESULT:    -8.569      0.000      0.000
REMARK INTER + INTRA:         -12.231
REMARK INTER:                 -11.718
REMARK INTRA:                  -0.513
REMARK UNBOUND:                -0.656
REMARK SMILES COc1ccc(/N=c2\[nH]c(=O)n(Cc3ncn(C)n3)c(=O)n2Cc2cc(F)c(F)c(F)c2)cc1
REMARK SMILES IDX 11 1 10 2 9 3 8 4 22 5 7 6 12 7 20 8 21 9 13 11 14 12 19 13
REMARK SMILES IDX 15 14 17 15 16 16 18 17 23 18 24 19 25 20 32 21 26 22 30 23
REMARK SMILES IDX 27 24 28 25 31 26 29 27 6 28 5 29 33 30 4 31 34 32 3 33 2 34
REMARK SMILES IDX 1 35
REMARK H PARENT 9 10
REMARK Flexibility Score: inf
ROOT
ATOM      1  O   UNL     1     -21.351  22.232 -29.971  1.00  0.00    -0.248 OA
ATOM      2  C   UNL     1     -20.897  21.120 -29.632  1.00  0.00     0.332 A 
ATOM      3  N   UNL     1     -20.154  20.996 -28.508  1.00  0.00    -0.277 N 
ATOM      4  C   UNL     1     -19.671  19.812 -28.148  1.00  0.00     0.215 A 
ATOM      5  N   UNL     1     -19.912  18.714 -28.899  1.00  0.00    -0.259 N 
ATOM      6  N   UNL     1     -18.978  19.764 -27.059  1.00  0.00    -0.215 NA
ATOM      7  N   UNL     1     -21.128  20.032 -30.364  1.00  0.00    -0.237 N 
ATOM      8  C   UNL     1     -20.644  18.827 -30.011  1.00  0.00     0.335 A 
ATOM      9  O   UNL     1     -20.902  17.818 -30.756  1.00  0.00    -0.247 OA
ATOM     10  H   UNL     1     -19.962  21.841 -27.920  1.00  0.00     0.175 HD
ENDROOT
BRANCH   7  11
ATOM     11  C   UNL     1     -21.923  20.084 -31.596  1.00  0.00     0.211 C 
BRANCH  11  12
ATOM     12  C   UNL     1     -23.279  19.560 -31.409  1.00  0.00     0.170 A 
ATOM     13  N   UNL     1     -23.905  18.592 -32.103  1.00  0.00    -0.155 NA
ATOM     14  N   UNL     1     -24.179  19.959 -30.482  1.00  0.00    -0.218 NA
ATOM     15  N   UNL     1     -25.127  18.395 -31.636  1.00  0.00    -0.256 N 
ATOM     16  C   UNL     1     -25.318  19.260 -30.603  1.00  0.00     0.219 A 
ATOM     17  C   UNL     1     -26.143  17.458 -32.082  1.00  0.00     0.175 C 
ENDBRANCH  11  12
ENDBRANCH   7  11
BRANCH   5  18
ATOM     18  C   UNL     1     -19.399  17.439 -28.523  1.00  0.00     0.166 C 
BRANCH  18  19
ATOM     19  C   UNL     1     -20.377  16.393 -28.232  1.00  0.00    -0.022 A 
ATOM     20  C   UNL     1     -21.442  16.540 -27.353  1.00  0.00     0.048 A 
ATOM     21  C   UNL     1     -20.265  15.164 -28.848  1.00  0.00     0.048 A 
ATOM     22  C   UNL     1     -22.351  15.506 -27.104  1.00  0.00     0.162 A 
ATOM     23  C   UNL     1     -21.172  14.125 -28.603  1.00  0.00     0.162 A 
ATOM     24  F   UNL     1     -23.378  15.719 -26.227  1.00  0.00    -0.204 F 
ATOM     25  C   UNL     1     -22.222  14.287 -27.730  1.00  0.00     0.194 A 
ATOM     26  F   UNL     1     -21.054  12.923 -29.213  1.00  0.00    -0.204 F 
ATOM     27  F   UNL     1     -23.125  13.319 -27.458  1.00  0.00    -0.200 F 
ENDBRANCH  18  19
ENDBRANCH   5  18
BRANCH   6  28
ATOM     28  C   UNL     1     -18.757  20.958 -26.290  1.00  0.00     0.067 A 
ATOM     29  C   UNL     1     -19.591  21.370 -25.306  1.00  0.00     0.032 A 
ATOM     30  C   UNL     1     -17.639  21.676 -26.609  1.00  0.00     0.032 A 
ATOM     31  C   UNL     1     -19.316  22.525 -24.613  1.00  0.00     0.048 A 
ATOM     32  C   UNL     1     -17.380  22.832 -25.901  1.00  0.00     0.048 A 
ATOM     33  C   UNL     1     -18.204  23.276 -24.899  1.00  0.00     0.119 A 
BRANCH  33  34
ATOM     34  O   UNL     1     -17.910  24.431 -24.221  1.00  0.00    -0.497 OA
ATOM     35  C   UNL     1     -18.916  25.401 -24.029  1.00  0.00     0.278 C 
ENDBRANCH  33  34
ENDBRANCH   6  28
TORSDOF 6
ENDMDL
MODEL 2
REMARK VINA RESULT:    -8.465      0.117      1.400
REMARK INTER + INTRA:         -12.091
REMARK INTER:                 -11.575
REMARK INTRA:                  -0.516
REMARK UNBOUND:                -0.656
REMARK SMILES COc1ccc(/N=c2\[nH]c(=O)n(Cc3ncn(C)n3)c(=O)n2Cc2cc(F)c(F)c(F)c2)cc1
REMARK SMILES IDX 11 1 10 2 9 3 8 4 22 5 7 6 12 7 20 8 21 9 13 11 14 12 19 13
REMARK SMILES IDX 15 14 17 15 16 16 18 17 23 18 24 19 25 20 32 21 26 22 30 23
REMARK SMILES IDX 27 24 28 25 31 26 29 27 6 28 5 29 33 30 4 31 34 32 3 33 2 34
REMARK SMILES IDX 1 35
REMARK H PARENT 9 10
REMARK Flexibility Score: inf
ROOT
ATOM      1  O   UNL     1     -21.409  22.212 -29.930  1.00  0.00    -0.248 OA
ATOM      2  C   UNL     1     -20.934  21.105 -29.603  1.00  0.00     0.332 A 
ATOM      3  N   UNL     1     -20.172  20.988 -28.490  1.00  0.00    -0.277 N 
ATOM      4  C   UNL     1     -19.667  19.810 -28.142  1.00  0.00     0.215 A 
ATOM      5  N   UNL     1     -19.903  18.711 -28.893  1.00  0.00    -0.259 N 
ATOM      6  N   UNL     1     -18.956  19.769 -27.064  1.00  0.00    -0.215 NA
ATOM      7  N   UNL     1     -21.161  20.016 -30.334  1.00  0.00    -0.237 N 
ATOM      8  C   UNL     1     -20.655  18.817 -29.994  1.00  0.00     0.335 A 
ATOM      9  O   UNL     1     -20.910  17.807 -30.737  1.00  0.00    -0.247 OA
ATOM     10  H   UNL     1     -19.983  21.834 -27.903  1.00  0.00     0.175 HD
ENDROOT
BRANCH   7  11
ATOM     11  C   UNL     1     -21.976  20.061 -31.554  1.00  0.00     0.211 C 
BRANCH  11  12
ATOM     12  C   UNL     1     -23.346  19.592 -31.328  1.00  0.00     0.170 A 
ATOM     13  N   UNL     1     -24.068  18.728 -32.065  1.00  0.00    -0.155 NA
ATOM     14  N   UNL     1     -24.165  19.948 -30.311  1.00  0.00    -0.218 NA
ATOM     15  N   UNL     1     -25.269  18.552 -31.540  1.00  0.00    -0.256 N 
ATOM     16  C   UNL     1     -25.347  19.324 -30.422  1.00  0.00     0.219 A 
ATOM     17  C   UNL     1     -26.362  17.715 -32.003  1.00  0.00     0.175 C 
ENDBRANCH  11  12
ENDBRANCH   7  11
BRANCH   5  18
ATOM     18  C   UNL     1     -19.366  17.442 -28.530  1.00  0.00     0.166 C 
BRANCH  18  19
ATOM     19  C   UNL     1     -20.324  16.371 -28.262  1.00  0.00    -0.022 A 
ATOM     20  C   UNL     1     -20.321  15.140 -28.905  1.00  0.00     0.048 A 
ATOM     21  C   UNL     1     -21.313  16.560 -27.321  1.00  0.00     0.048 A 
ATOM     22  C   UNL     1     -21.263  14.146 -28.617  1.00  0.00     0.162 A 
ATOM     23  C   UNL     1     -22.259  15.569 -27.027  1.00  0.00     0.162 A 
ATOM     24  F   UNL     1     -21.202  12.956 -29.287  1.00  0.00    -0.204 F 
ATOM     25  C   UNL     1     -22.242  14.355 -27.673  1.00  0.00     0.194 A 
ATOM     26  F   UNL     1     -23.225  15.764 -26.100  1.00  0.00    -0.204 F 
ATOM     27  F   UNL     1     -23.130  13.366 -27.428  1.00  0.00    -0.200 F 
ENDBRANCH  18  19
ENDBRANCH   5  18
BRANCH   6  28
ATOM     28  C   UNL     1     -18.740  20.964 -26.295  1.00  0.00     0.067 A 
ATOM     29  C   UNL     1     -19.592  21.387 -25.332  1.00  0.00     0.032 A 
ATOM     30  C   UNL     1     -17.607  21.669 -26.591  1.00  0.00     0.032 A 
ATOM     31  C   UNL     1     -19.320  22.542 -24.637  1.00  0.00     0.048 A 
ATOM     32  C   UNL     1     -17.352  22.825 -25.882  1.00  0.00     0.048 A 
ATOM     33  C   UNL     1     -18.195  23.281 -24.900  1.00  0.00     0.119 A 
BRANCH  33  34
ATOM     34  O   UNL     1     -17.904  24.435 -24.220  1.00  0.00    -0.497 OA
ATOM     35  C   UNL     1     -18.926  25.375 -23.976  1.00  0.00     0.278 C 
ENDBRANCH  33  34
ENDBRANCH   6  28
TORSDOF 6
ENDMDL
MODEL 3
REMARK VINA RESULT:    -8.300      3.784      6.651
REMARK INTER + INTRA:         -11.867
REMARK INTER:                 -11.398
REMARK INTRA:                  -0.470
REMARK UNBOUND:                -0.656
REMARK SMILES COc1ccc(/N=c2\[nH]c(=O)n(Cc3ncn(C)n3)c(=O)n2Cc2cc(F)c(F)c(F)c2)cc1
REMARK SMILES IDX 11 1 10 2 9 3 8 4 22 5 7 6 12 7 20 8 21 9 13 11 14 12 19 13
REMARK SMILES IDX 15 14 17 15 16 16 18 17 23 18 24 19 25 20 32 21 26 22 30 23
REMARK SMILES IDX 27 24 28 25 31 26 29 27 6 28 5 29 33 30 4 31 34 32 3 33 2 34
REMARK SMILES IDX 1 35
REMARK H PARENT 9 10
REMARK Flexibility Score: inf
ROOT
ATOM      1  O   UNL     1     -20.739  19.600 -24.364  1.00  0.00    -0.248 OA
ATOM      2  C   UNL     1     -20.476  18.773 -25.261  1.00  0.00     0.332 A 
ATOM      3  N   UNL     1     -20.372  17.455 -24.970  1.00  0.00    -0.277 N 
ATOM      4  C   UNL     1     -20.093  16.576 -25.926  1.00  0.00     0.215 A 
ATOM      5  N   UNL     1     -19.906  16.982 -27.201  1.00  0.00    -0.259 N 
ATOM      6  N   UNL     1     -20.018  15.333 -25.580  1.00  0.00    -0.215 NA
ATOM      7  N   UNL     1     -20.291  19.162 -26.521  1.00  0.00    -0.237 N 
ATOM      8  C   UNL     1     -20.006  18.282 -27.498  1.00  0.00     0.335 A 
ATOM      9  O   UNL     1     -19.841  18.717 -28.690  1.00  0.00    -0.247 OA
ATOM     10  H   UNL     1     -20.515  17.131 -23.984  1.00  0.00     0.175 HD
ENDROOT
BRANCH   7  11
ATOM     11  C   UNL     1     -20.386  20.572 -26.916  1.00  0.00     0.211 C 
BRANCH  11  12
ATOM     12  C   UNL     1     -19.077  21.231 -26.957  1.00  0.00     0.170 A 
ATOM     13  N   UNL     1     -18.246  21.506 -25.936  1.00  0.00    -0.155 NA
ATOM     14  N   UNL     1     -18.443  21.698 -28.056  1.00  0.00    -0.218 NA
ATOM     15  N   UNL     1     -17.152  22.110 -26.370  1.00  0.00    -0.256 N 
ATOM     16  C   UNL     1     -17.263  22.242 -27.720  1.00  0.00     0.219 A 
ATOM     17  C   UNL     1     -16.002  22.583 -25.620  1.00  0.00     0.175 C 
ENDBRANCH  11  12
ENDBRANCH   7  11
BRANCH   5  18
ATOM     18  C   UNL     1     -19.606  16.048 -28.235  1.00  0.00     0.166 C 
BRANCH  18  19
ATOM     19  C   UNL     1     -20.736  15.346 -28.840  1.00  0.00    -0.022 A 
ATOM     20  C   UNL     1     -21.602  15.910 -29.767  1.00  0.00     0.048 A 
ATOM     21  C   UNL     1     -20.994  14.038 -28.489  1.00  0.00     0.048 A 
ATOM     22  C   UNL     1     -22.674  15.198 -30.316  1.00  0.00     0.162 A 
ATOM     23  C   UNL     1     -22.064  13.318 -29.035  1.00  0.00     0.162 A 
ATOM     24  F   UNL     1     -23.488  15.815 -31.225  1.00  0.00    -0.204 F 
ATOM     25  C   UNL     1     -22.913  13.893 -29.953  1.00  0.00     0.194 A 
ATOM     26  F   UNL     1     -22.308  12.035 -28.685  1.00  0.00    -0.204 F 
ATOM     27  F   UNL     1     -23.960  13.244 -30.510  1.00  0.00    -0.200 F 
ENDBRANCH  18  19
ENDBRANCH   5  18
BRANCH   6  28
ATOM     28  C   UNL     1     -20.232  14.950 -24.211  1.00  0.00     0.067 A 
ATOM     29  C   UNL     1     -19.246  14.478 -23.412  1.00  0.00     0.032 A 
ATOM     30  C   UNL     1     -21.509  15.088 -23.745  1.00  0.00     0.032 A 
ATOM     31  C   UNL     1     -19.526  14.130 -22.112  1.00  0.00     0.048 A 
ATOM     32  C   UNL     1     -21.770  14.734 -22.437  1.00  0.00     0.048 A 
ATOM     33  C   UNL     1     -20.794  14.253 -21.602  1.00  0.00     0.119 A 
BRANCH  33  34
ATOM     34  O   UNL     1     -21.095  13.912 -20.308  1.00  0.00    -0.497 OA
ATOM     35  C   UNL     1     -22.442  13.896 -19.889  1.00  0.00     0.278 C 
ENDBRANCH  33  34
ENDBRANCH   6  28
TORSDOF 6
ENDMDL
MODEL 4
REMARK VINA RESULT:    -8.135      2.241      6.519
REMARK INTER + INTRA:         -11.644
REMARK INTER:                 -11.131
REMARK INTRA:                  -0.513
REMARK UNBOUND:                -0.656
REMARK SMILES COc1ccc(/N=c2\[nH]c(=O)n(Cc3ncn(C)n3)c(=O)n2Cc2cc(F)c(F)c(F)c2)cc1
REMARK SMILES IDX 11 1 10 2 9 3 8 4 22 5 7 6 12 7 20 8 21 9 13 11 14 12 19 13
REMARK SMILES IDX 15 14 17 15 16 16 18 17 23 18 24 19 25 20 32 21 26 22 30 23
REMARK SMILES IDX 27 24 28 25 31 26 29 27 6 28 5 29 33 30 4 31 34 32 3 33 2 34
REMARK SMILES IDX 1 35
REMARK H PARENT 9 10
REMARK Flexibility Score: inf
ROOT
ATOM      1  O   UNL     1     -19.662  21.790 -28.894  1.00  0.00    -0.248 OA
ATOM      2  C   UNL     1     -20.029  20.726 -28.353  1.00  0.00     0.332 A 
ATOM      3  N   UNL     1     -21.139  20.085 -28.785  1.00  0.00    -0.277 N 
ATOM      4  C   UNL     1     -21.529  18.952 -28.210  1.00  0.00     0.215 A 
ATOM      5  N   UNL     1     -20.826  18.426 -27.183  1.00  0.00    -0.259 N 
ATOM      6  N   UNL     1     -22.593  18.389 -28.679  1.00  0.00    -0.215 NA
ATOM      7  N   UNL     1     -19.343  20.197 -27.342  1.00  0.00    -0.237 N 
ATOM      8  C   UNL     1     -19.727  19.052 -26.749  1.00  0.00     0.335 A 
ATOM      9  O   UNL     1     -19.025  18.593 -25.782  1.00  0.00    -0.247 OA
ATOM     10  H   UNL     1     -21.691  20.486 -29.580  1.00  0.00     0.175 HD
ENDROOT
BRANCH   7  11
ATOM     11  C   UNL     1     -18.130  20.832 -26.816  1.00  0.00     0.211 C 
BRANCH  11  12
ATOM     12  C   UNL     1     -18.428  21.922 -25.882  1.00  0.00     0.170 A 
ATOM     13  N   UNL     1     -19.482  22.051 -25.056  1.00  0.00    -0.155 NA
ATOM     14  N   UNL     1     -17.683  23.030 -25.669  1.00  0.00    -0.218 NA
ATOM     15  N   UNL     1     -19.401  23.176 -24.364  1.00  0.00    -0.256 N 
ATOM     16  C   UNL     1     -18.261  23.813 -24.744  1.00  0.00     0.219 A 
ATOM     17  C   UNL     1     -20.313  23.712 -23.369  1.00  0.00     0.175 C 
ENDBRANCH  11  12
ENDBRANCH   7  11
BRANCH   5  18
ATOM     18  C   UNL     1     -21.234  17.212 -26.558  1.00  0.00     0.166 C 
BRANCH  18  19
ATOM     19  C   UNL     1     -21.135  15.991 -27.355  1.00  0.00    -0.022 A 
ATOM     20  C   UNL     1     -22.226  15.253 -27.795  1.00  0.00     0.048 A 
ATOM     21  C   UNL     1     -19.894  15.507 -27.711  1.00  0.00     0.048 A 
ATOM     22  C   UNL     1     -22.081  14.087 -28.554  1.00  0.00     0.162 A 
ATOM     23  C   UNL     1     -19.741  14.341 -28.471  1.00  0.00     0.162 A 
ATOM     24  F   UNL     1     -23.198  13.408 -28.955  1.00  0.00    -0.204 F 
ATOM     25  C   UNL     1     -20.833  13.621 -28.899  1.00  0.00     0.194 A 
ATOM     26  F   UNL     1     -18.518  13.874 -28.815  1.00  0.00    -0.204 F 
ATOM     27  F   UNL     1     -20.741  12.491 -29.633  1.00  0.00    -0.200 F 
ENDBRANCH  18  19
ENDBRANCH   5  18
BRANCH   6  28
ATOM     28  C   UNL     1     -23.302  18.985 -29.777  1.00  0.00     0.067 A 
ATOM     29  C   UNL     1     -24.239  19.949 -29.616  1.00  0.00     0.032 A 
ATOM     30  C   UNL     1     -22.978  18.521 -31.021  1.00  0.00     0.032 A 
ATOM     31  C   UNL     1     -24.878  20.473 -30.715  1.00  0.00     0.048 A 
ATOM     32  C   UNL     1     -23.630  19.060 -32.111  1.00  0.00     0.048 A 
ATOM     33  C   UNL     1     -24.584  20.037 -31.982  1.00  0.00     0.119 A 
BRANCH  33  34
ATOM     34  O   UNL     1     -25.208  20.546 -33.092  1.00  0.00    -0.497 OA
ATOM     35  C   UNL     1     -24.968  21.882 -33.474  1.00  0.00     0.278 C 
ENDBRANCH  33  34
ENDBRANCH   6  28
TORSDOF 6
ENDMDL
MODEL 5
REMARK VINA RESULT:    -7.919      4.198      6.698
REMARK INTER + INTRA:         -11.353
REMARK INTER:                 -10.881
REMARK INTRA:                  -0.472
REMARK UNBOUND:                -0.656
REMARK SMILES COc1ccc(/N=c2\[nH]c(=O)n(Cc3ncn(C)n3)c(=O)n2Cc2cc(F)c(F)c(F)c2)cc1
REMARK SMILES IDX 11 1 10 2 9 3 8 4 22 5 7 6 12 7 20 8 21 9 13 11 14 12 19 13
REMARK SMILES IDX 15 14 17 15 16 16 18 17 23 18 24 19 25 20 32 21 26 22 30 23
REMARK SMILES IDX 27 24 28 25 31 26 29 27 6 28 5 29 33 30 4 31 34 32 3 33 2 34
REMARK SMILES IDX 1 35
REMARK H PARENT 9 10
REMARK Flexibility Score: inf
ROOT
ATOM      1  O   UNL     1     -23.785  17.948 -27.328  1.00  0.00    -0.248 OA
ATOM      2  C   UNL     1     -22.582  18.283 -27.335  1.00  0.00     0.332 A 
ATOM      3  N   UNL     1     -21.718  17.750 -26.441  1.00  0.00    -0.277 N 
ATOM      4  C   UNL     1     -20.438  18.107 -26.449  1.00  0.00     0.215 A 
ATOM      5  N   UNL     1     -19.981  19.007 -27.347  1.00  0.00    -0.259 N 
ATOM      6  N   UNL     1     -19.666  17.552 -25.573  1.00  0.00    -0.215 NA
ATOM      7  N   UNL     1     -22.121  19.168 -28.216  1.00  0.00    -0.237 N 
ATOM      8  C   UNL     1     -20.827  19.538 -28.234  1.00  0.00     0.335 A 
ATOM      9  O   UNL     1     -20.443  20.393 -29.107  1.00  0.00    -0.247 OA
ATOM     10  H   UNL     1     -22.064  17.052 -25.741  1.00  0.00     0.175 HD
ENDROOT
BRANCH   7  11
ATOM     11  C   UNL     1     -22.995  19.790 -29.217  1.00  0.00     0.211 C 
BRANCH  11  12
ATOM     12  C   UNL     1     -23.297  18.890 -30.333  1.00  0.00     0.170 A 
ATOM     13  N   UNL     1     -24.498  18.475 -30.773  1.00  0.00    -0.155 NA
ATOM     14  N   UNL     1     -22.402  18.291 -31.152  1.00  0.00    -0.218 NA
ATOM     15  N   UNL     1     -24.365  17.663 -31.809  1.00  0.00    -0.256 N 
ATOM     16  C   UNL     1     -23.034  17.534 -32.062  1.00  0.00     0.219 A 
ATOM     17  C   UNL     1     -25.388  16.989 -32.587  1.00  0.00     0.175 C 
ENDBRANCH  11  12
ENDBRANCH   7  11
BRANCH   5  18
ATOM     18  C   UNL     1     -18.610  19.397 -27.365  1.00  0.00     0.166 C 
BRANCH  18  19
ATOM     19  C   UNL     1     -18.264  20.629 -26.660  1.00  0.00    -0.022 A 
ATOM     20  C   UNL     1     -17.026  21.254 -26.737  1.00  0.00     0.048 A 
ATOM     21  C   UNL     1     -19.200  21.240 -25.853  1.00  0.00     0.048 A 
ATOM     22  C   UNL     1     -16.740  22.432 -26.039  1.00  0.00     0.162 A 
ATOM     23  C   UNL     1     -18.922  22.420 -25.152  1.00  0.00     0.162 A 
ATOM     24  F   UNL     1     -15.500  22.995 -26.160  1.00  0.00    -0.204 F 
ATOM     25  C   UNL     1     -17.690  23.026 -25.239  1.00  0.00     0.194 A 
ATOM     26  F   UNL     1     -19.848  23.011 -24.363  1.00  0.00    -0.204 F 
ATOM     27  F   UNL     1     -17.369  24.164 -24.585  1.00  0.00    -0.200 F 
ENDBRANCH  18  19
ENDBRANCH   5  18
BRANCH   6  28
ATOM     28  C   UNL     1     -20.200  16.594 -24.644  1.00  0.00     0.067 A 
ATOM     29  C   UNL     1     -20.932  16.944 -23.560  1.00  0.00     0.032 A 
ATOM     30  C   UNL     1     -19.925  15.283 -24.912  1.00  0.00     0.032 A 
ATOM     31  C   UNL     1     -21.409  15.972 -22.713  1.00  0.00     0.048 A 
ATOM     32  C   UNL     1     -20.413  14.322 -24.050  1.00  0.00     0.048 A 
ATOM     33  C   UNL     1     -21.158  14.643 -22.944  1.00  0.00     0.119 A 
BRANCH  33  34
ATOM     34  O   UNL     1     -21.624  13.657 -22.113  1.00  0.00    -0.497 OA
ATOM     35  C   UNL     1     -22.072  13.992 -20.819  1.00  0.00     0.278 C 
ENDBRANCH  33  34
ENDBRANCH   6  28
TORSDOF 6
ENDMDL
