MODEL 1
REMARK VINA RESULT:   -10.063      0.000      0.000
REMARK INTER + INTRA:         -12.736
REMARK INTER:                 -11.895
REMARK INTRA:                  -0.842
REMARK UNBOUND:                 0.268
REMARK SMILES Cn1cnc(Cn2c(=O)[nH]/c(=N\c3cc4cn(C)nc4cc3Cl)n(Cc3cc(F)c(F)cc3F)c2=O)n1
REMARK SMILES IDX 9 1 8 2 10 3 11 4 24 5 12 6 7 7 35 8 36 9 6 11 5 12 37 13
REMARK SMILES IDX 4 14 2 15 3 16 1 17 25 18 26 19 33 20 27 21 34 22 32 23
REMARK SMILES IDX 28 24 30 25 29 26 31 27 13 28 14 29 22 30 15 31 21 32 23 33
REMARK SMILES IDX 16 34 20 35 17 36 19 37 18 38
REMARK H PARENT 10 10
REMARK Flexibility Score: inf
ROOT
ATOM      1  O   UNL     1     -21.415  22.382 -29.961  1.00  0.00    -0.248 OA
ATOM      2  C   UNL     1     -20.959  21.243 -29.625  1.00  0.00     0.332 A 
ATOM      3  N   UNL     1     -20.295  21.136 -28.482  1.00  0.00    -0.277 N 
ATOM      4  C   UNL     1     -19.808  19.916 -28.123  1.00  0.00     0.216 A 
ATOM      5  N   UNL     1     -19.975  18.824 -28.880  1.00  0.00    -0.259 N 
ATOM      6  N   UNL     1     -19.152  19.928 -27.007  1.00  0.00    -0.213 NA
ATOM      7  N   UNL     1     -21.140  20.178 -30.399  1.00  0.00    -0.237 N 
ATOM      8  C   UNL     1     -20.660  19.001 -30.033  1.00  0.00     0.335 A 
ATOM      9  O   UNL     1     -20.818  17.987 -30.745  1.00  0.00    -0.247 OA
ATOM     10  H   UNL     1     -20.166  21.991 -27.890  1.00  0.00     0.175 HD
ENDROOT
BRANCH   7  11
ATOM     11  C   UNL     1     -21.875  20.344 -31.643  1.00  0.00     0.211 C 
BRANCH  11  12
ATOM     12  C   UNL     1     -23.209  19.699 -31.526  1.00  0.00     0.170 A 
ATOM     13  N   UNL     1     -23.766  18.732 -32.278  1.00  0.00    -0.155 NA
ATOM     14  N   UNL     1     -24.120  20.014 -30.579  1.00  0.00    -0.218 NA
ATOM     15  N   UNL     1     -24.978  18.450 -31.827  1.00  0.00    -0.256 N 
ATOM     16  C   UNL     1     -25.202  19.244 -30.769  1.00  0.00     0.219 A 
ATOM     17  C   UNL     1     -25.932  17.472 -32.339  1.00  0.00     0.175 C 
ENDBRANCH  11  12
ENDBRANCH   7  11
BRANCH   5  18
ATOM     18  C   UNL     1     -19.484  17.559 -28.468  1.00  0.00     0.169 C 
BRANCH  18  19
ATOM     19  C   UNL     1     -20.414  16.485 -28.206  1.00  0.00     0.011 A 
ATOM     20  C   UNL     1     -21.485  16.511 -27.373  1.00  0.00     0.131 A 
ATOM     21  C   UNL     1     -20.211  15.272 -28.888  1.00  0.00     0.051 A 
ATOM     22  F   UNL     1     -21.794  17.596 -26.646  1.00  0.00    -0.207 F 
ATOM     23  C   UNL     1     -22.335  15.408 -27.198  1.00  0.00     0.082 A 
ATOM     24  C   UNL     1     -21.029  14.181 -28.731  1.00  0.00     0.159 A 
ATOM     25  C   UNL     1     -22.108  14.242 -27.878  1.00  0.00     0.161 A 
ATOM     26  F   UNL     1     -20.837  13.011 -29.386  1.00  0.00    -0.204 F 
ATOM     27  F   UNL     1     -22.929  13.148 -27.722  1.00  0.00    -0.204 F 
ENDBRANCH  18  19
ENDBRANCH   5  18
BRANCH   6  28
ATOM     28  C   UNL     1     -18.959  21.101 -26.230  1.00  0.00     0.086 A 
ATOM     29  C   UNL     1     -19.948  21.405 -25.308  1.00  0.00     0.042 A 
ATOM     30  C   UNL     1     -17.843  21.886 -26.402  1.00  0.00     0.069 A 
ATOM     31  C   UNL     1     -19.827  22.519 -24.533  1.00  0.00     0.022 A 
ATOM     32  C   UNL     1     -17.717  23.007 -25.626  1.00  0.00     0.053 A 
ATOM     33  Cl  UNL     1     -16.672  21.399 -27.593  1.00  0.00    -0.082 Cl
ATOM     34  C   UNL     1     -20.603  23.090 -23.555  1.00  0.00     0.117 A 
ATOM     35  C   UNL     1     -18.695  23.329 -24.697  1.00  0.00     0.094 A 
ATOM     36  N   UNL     1     -19.963  24.197 -23.148  1.00  0.00    -0.275 N 
ATOM     37  N   UNL     1     -18.828  24.329 -23.836  1.00  0.00    -0.173 NA
ATOM     38  C   UNL     1     -20.433  25.099 -22.128  1.00  0.00     0.173 C 
ENDBRANCH   6  28
TORSDOF 5
ENDMDL
MODEL 2
REMARK VINA RESULT:    -9.858      1.277      1.643
REMARK INTER + INTRA:         -12.471
REMARK INTER:                 -11.420
REMARK INTRA:                  -1.051
REMARK UNBOUND:                 0.268
REMARK SMILES Cn1cnc(Cn2c(=O)[nH]/c(=N\c3cc4cn(C)nc4cc3Cl)n(Cc3cc(F)c(F)cc3F)c2=O)n1
REMARK SMILES IDX 9 1 8 2 10 3 11 4 24 5 12 6 7 7 35 8 36 9 6 11 5 12 37 13
REMARK SMILES IDX 4 14 2 15 3 16 1 17 25 18 26 19 33 20 27 21 34 22 32 23
REMARK SMILES IDX 28 24 30 25 29 26 31 27 13 28 14 29 22 30 15 31 21 32 23 33
REMARK SMILES IDX 16 34 20 35 17 36 19 37 18 38
REMARK H PARENT 10 10
REMARK Flexibility Score: inf
ROOT
ATOM      1  O   UNL     1     -22.026  22.286 -29.645  1.00  0.00    -0.248 OA
ATOM      2  C   UNL     1     -21.481  21.172 -29.360  1.00  0.00     0.332 A 
ATOM      3  N   UNL     1     -20.967  21.007 -28.148  1.00  0.00    -0.277 N 
ATOM      4  C   UNL     1     -20.385  19.814 -27.844  1.00  0.00     0.216 A 
ATOM      5  N   UNL     1     -20.313  18.805 -28.722  1.00  0.00    -0.259 N 
ATOM      6  N   UNL     1     -19.890  19.769 -26.649  1.00  0.00    -0.213 NA
ATOM      7  N   UNL     1     -21.423  20.190 -30.253  1.00  0.00    -0.237 N 
ATOM      8  C   UNL     1     -20.854  19.038 -29.939  1.00  0.00     0.335 A 
ATOM      9  O   UNL     1     -20.788  18.102 -30.763  1.00  0.00    -0.247 OA
ATOM     10  H   UNL     1     -21.025  21.798 -27.462  1.00  0.00     0.175 HD
ENDROOT
BRANCH   7  11
ATOM     11  C   UNL     1     -22.001  20.417 -31.568  1.00  0.00     0.211 C 
BRANCH  11  12
ATOM     12  C   UNL     1     -23.354  19.805 -31.634  1.00  0.00     0.170 A 
ATOM     13  N   UNL     1     -23.749  18.652 -32.203  1.00  0.00    -0.155 NA
ATOM     14  N   UNL     1     -24.461  20.359 -31.093  1.00  0.00    -0.218 NA
ATOM     15  N   UNL     1     -25.051  18.485 -32.030  1.00  0.00    -0.256 N 
ATOM     16  C   UNL     1     -25.497  19.544 -31.339  1.00  0.00     0.219 A 
ATOM     17  C   UNL     1     -25.892  17.381 -32.481  1.00  0.00     0.175 C 
ENDBRANCH  11  12
ENDBRANCH   7  11
BRANCH   5  18
ATOM     18  C   UNL     1     -19.728  17.562 -28.369  1.00  0.00     0.169 C 
BRANCH  18  19
ATOM     19  C   UNL     1     -20.564  16.391 -28.248  1.00  0.00     0.011 A 
ATOM     20  C   UNL     1     -21.714  16.273 -27.537  1.00  0.00     0.131 A 
ATOM     21  C   UNL     1     -20.165  15.235 -28.943  1.00  0.00     0.051 A 
ATOM     22  F   UNL     1     -22.210  17.288 -26.812  1.00  0.00    -0.207 F 
ATOM     23  C   UNL     1     -22.459  15.085 -27.494  1.00  0.00     0.082 A 
ATOM     24  C   UNL     1     -20.878  14.063 -28.915  1.00  0.00     0.159 A 
ATOM     25  C   UNL     1     -22.042  13.978 -28.184  1.00  0.00     0.161 A 
ATOM     26  F   UNL     1     -20.498  12.948 -29.583  1.00  0.00    -0.204 F 
ATOM     27  F   UNL     1     -22.757  12.802 -28.156  1.00  0.00    -0.204 F 
ENDBRANCH  18  19
ENDBRANCH   5  18
BRANCH   6  28
ATOM     28  C   UNL     1     -19.950  20.859 -25.740  1.00  0.00     0.086 A 
ATOM     29  C   UNL     1     -18.929  21.792 -25.821  1.00  0.00     0.042 A 
ATOM     30  C   UNL     1     -20.975  20.963 -24.829  1.00  0.00     0.069 A 
ATOM     31  C   UNL     1     -18.924  22.860 -24.976  1.00  0.00     0.022 A 
ATOM     32  C   UNL     1     -20.974  22.035 -23.976  1.00  0.00     0.053 A 
ATOM     33  Cl  UNL     1     -22.199  19.727 -24.825  1.00  0.00    -0.082 Cl
ATOM     34  C   UNL     1     -18.085  23.933 -24.797  1.00  0.00     0.117 A 
ATOM     35  C   UNL     1     -19.962  22.980 -24.041  1.00  0.00     0.094 A 
ATOM     36  N   UNL     1     -18.598  24.666 -23.798  1.00  0.00    -0.275 N 
ATOM     37  N   UNL     1     -19.716  24.088 -23.355  1.00  0.00    -0.173 NA
ATOM     38  C   UNL     1     -18.027  25.885 -23.285  1.00  0.00     0.173 C 
ENDBRANCH   6  28
TORSDOF 5
ENDMDL
MODEL 3
REMARK VINA RESULT:    -9.698      1.607      1.984
REMARK INTER + INTRA:         -12.265
REMARK INTER:                 -11.365
REMARK INTRA:                  -0.899
REMARK UNBOUND:                 0.268
REMARK SMILES Cn1cnc(Cn2c(=O)[nH]/c(=N\c3cc4cn(C)nc4cc3Cl)n(Cc3cc(F)c(F)cc3F)c2=O)n1
REMARK SMILES IDX 9 1 8 2 10 3 11 4 24 5 12 6 7 7 35 8 36 9 6 11 5 12 37 13
REMARK SMILES IDX 4 14 2 15 3 16 1 17 25 18 26 19 33 20 27 21 34 22 32 23
REMARK SMILES IDX 28 24 30 25 29 26 31 27 13 28 14 29 22 30 15 31 21 32 23 33
REMARK SMILES IDX 16 34 20 35 17 36 19 37 18 38
REMARK H PARENT 10 10
REMARK Flexibility Score: inf
ROOT
ATOM      1  O   UNL     1     -20.833  22.117 -30.018  1.00  0.00    -0.248 OA
ATOM      2  C   UNL     1     -20.579  20.994 -29.478  1.00  0.00     0.332 A 
ATOM      3  N   UNL     1     -20.001  20.977 -28.284  1.00  0.00    -0.277 N 
ATOM      4  C   UNL     1     -19.730  19.773 -27.708  1.00  0.00     0.216 A 
ATOM      5  N   UNL     1     -20.027  18.610 -28.301  1.00  0.00    -0.259 N 
ATOM      6  N   UNL     1     -19.140  19.870 -26.560  1.00  0.00    -0.213 NA
ATOM      7  N   UNL     1     -20.884  19.855 -30.092  1.00  0.00    -0.237 N 
ATOM      8  C   UNL     1     -20.614  18.696 -29.516  1.00  0.00     0.335 A 
ATOM      9  O   UNL     1     -20.891  17.614 -30.075  1.00  0.00    -0.247 OA
ATOM     10  H   UNL     1     -19.770  21.889 -27.822  1.00  0.00     0.175 HD
ENDROOT
BRANCH   7  11
ATOM     11  C   UNL     1     -21.518  19.923 -31.400  1.00  0.00     0.211 C 
BRANCH  11  12
ATOM     12  C   UNL     1     -22.948  19.534 -31.284  1.00  0.00     0.170 A 
ATOM     13  N   UNL     1     -23.651  18.624 -31.981  1.00  0.00    -0.155 NA
ATOM     14  N   UNL     1     -23.809  20.079 -30.396  1.00  0.00    -0.218 NA
ATOM     15  N   UNL     1     -24.903  18.595 -31.555  1.00  0.00    -0.256 N 
ATOM     16  C   UNL     1     -25.006  19.499 -30.568  1.00  0.00     0.219 A 
ATOM     17  C   UNL     1     -26.005  17.763 -32.027  1.00  0.00     0.175 C 
ENDBRANCH  11  12
ENDBRANCH   7  11
BRANCH   5  18
ATOM     18  C   UNL     1     -19.762  17.370 -27.664  1.00  0.00     0.169 C 
BRANCH  18  19
ATOM     19  C   UNL     1     -20.553  16.973 -26.523  1.00  0.00     0.011 A 
ATOM     20  C   UNL     1     -21.896  17.095 -26.371  1.00  0.00     0.131 A 
ATOM     21  C   UNL     1     -19.876  16.383 -25.440  1.00  0.00     0.051 A 
ATOM     22  F   UNL     1     -22.670  17.651 -27.315  1.00  0.00    -0.207 F 
ATOM     23  C   UNL     1     -22.570  16.665 -25.218  1.00  0.00     0.082 A 
ATOM     24  C   UNL     1     -20.515  15.956 -24.303  1.00  0.00     0.159 A 
ATOM     25  C   UNL     1     -21.880  16.094 -24.182  1.00  0.00     0.161 A 
ATOM     26  F   UNL     1     -19.867  15.387 -23.258  1.00  0.00    -0.204 F 
ATOM     27  F   UNL     1     -22.520  15.665 -23.042  1.00  0.00    -0.204 F 
ENDBRANCH  18  19
ENDBRANCH   5  18
BRANCH   6  28
ATOM     28  C   UNL     1     -18.807  21.113 -25.958  1.00  0.00     0.086 A 
ATOM     29  C   UNL     1     -19.734  21.645 -25.077  1.00  0.00     0.042 A 
ATOM     30  C   UNL     1     -17.620  21.743 -26.252  1.00  0.00     0.069 A 
ATOM     31  C   UNL     1     -19.478  22.836 -24.468  1.00  0.00     0.022 A 
ATOM     32  C   UNL     1     -17.359  22.942 -25.643  1.00  0.00     0.053 A 
ATOM     33  Cl  UNL     1     -16.537  20.975 -27.376  1.00  0.00    -0.082 Cl
ATOM     34  C   UNL     1     -20.165  23.616 -23.570  1.00  0.00     0.117 A 
ATOM     35  C   UNL     1     -18.273  23.491 -24.757  1.00  0.00     0.094 A 
ATOM     36  N   UNL     1     -19.404  24.695 -23.331  1.00  0.00    -0.275 N 
ATOM     37  N   UNL     1     -18.280  24.609 -24.044  1.00  0.00    -0.173 NA
ATOM     38  C   UNL     1     -19.751  25.774 -22.442  1.00  0.00     0.173 C 
ENDBRANCH   6  28
TORSDOF 5
ENDMDL
MODEL 4
REMARK VINA RESULT:    -9.628      2.356      6.702
REMARK INTER + INTRA:         -12.174
REMARK INTER:                 -11.581
REMARK INTRA:                  -0.594
REMARK UNBOUND:                 0.268
REMARK SMILES Cn1cnc(Cn2c(=O)[nH]/c(=N\c3cc4cn(C)nc4cc3Cl)n(Cc3cc(F)c(F)cc3F)c2=O)n1
REMARK SMILES IDX 9 1 8 2 10 3 11 4 24 5 12 6 7 7 35 8 36 9 6 11 5 12 37 13
REMARK SMILES IDX 4 14 2 15 3 16 1 17 25 18 26 19 33 20 27 21 34 22 32 23
REMARK SMILES IDX 28 24 30 25 29 26 31 27 13 28 14 29 22 30 15 31 21 32 23 33
REMARK SMILES IDX 16 34 20 35 17 36 19 37 18 38
REMARK H PARENT 10 10
REMARK Flexibility Score: inf
ROOT
ATOM      1  O   UNL     1     -19.369  21.629 -28.804  1.00  0.00    -0.248 OA
ATOM      2  C   UNL     1     -19.756  20.606 -28.155  1.00  0.00     0.332 A 
ATOM      3  N   UNL     1     -20.819  19.941 -28.590  1.00  0.00    -0.277 N 
ATOM      4  C   UNL     1     -21.233  18.846 -27.895  1.00  0.00     0.216 A 
ATOM      5  N   UNL     1     -20.607  18.417 -26.791  1.00  0.00    -0.259 N 
ATOM      6  N   UNL     1     -22.293  18.290 -28.386  1.00  0.00    -0.213 NA
ATOM      7  N   UNL     1     -19.115  20.205 -27.062  1.00  0.00    -0.237 N 
ATOM      8  C   UNL     1     -19.532  19.139 -26.400  1.00  0.00     0.335 A 
ATOM      9  O   UNL     1     -18.945  18.745 -25.370  1.00  0.00    -0.247 OA
ATOM     10  H   UNL     1     -21.307  20.278 -29.454  1.00  0.00     0.175 HD
ENDROOT
BRANCH   7  11
ATOM     11  C   UNL     1     -17.955  20.965 -26.624  1.00  0.00     0.211 C 
BRANCH  11  12
ATOM     12  C   UNL     1     -18.387  22.063 -25.720  1.00  0.00     0.170 A 
ATOM     13  N   UNL     1     -19.418  22.111 -24.857  1.00  0.00    -0.155 NA
ATOM     14  N   UNL     1     -17.762  23.257 -25.629  1.00  0.00    -0.218 NA
ATOM     15  N   UNL     1     -19.443  23.286 -24.247  1.00  0.00    -0.256 N 
ATOM     16  C   UNL     1     -18.414  24.002 -24.725  1.00  0.00     0.219 A 
ATOM     17  C   UNL     1     -20.385  23.766 -23.241  1.00  0.00     0.175 C 
ENDBRANCH  11  12
ENDBRANCH   7  11
BRANCH   5  18
ATOM     18  C   UNL     1     -21.040  17.255 -26.102  1.00  0.00     0.169 C 
BRANCH  18  19
ATOM     19  C   UNL     1     -21.222  16.022 -26.832  1.00  0.00     0.011 A 
ATOM     20  C   UNL     1     -22.353  15.277 -26.917  1.00  0.00     0.131 A 
ATOM     21  C   UNL     1     -20.119  15.525 -27.549  1.00  0.00     0.051 A 
ATOM     22  F   UNL     1     -23.480  15.621 -26.274  1.00  0.00    -0.207 F 
ATOM     23  C   UNL     1     -22.426  14.093 -27.666  1.00  0.00     0.082 A 
ATOM     24  C   UNL     1     -20.168  14.369 -28.287  1.00  0.00     0.159 A 
ATOM     25  C   UNL     1     -21.333  13.638 -28.353  1.00  0.00     0.161 A 
ATOM     26  F   UNL     1     -19.108  13.887 -28.980  1.00  0.00    -0.204 F 
ATOM     27  F   UNL     1     -21.381  12.479 -29.094  1.00  0.00    -0.204 F 
ENDBRANCH  18  19
ENDBRANCH   5  18
BRANCH   6  28
ATOM     28  C   UNL     1     -22.961  18.775 -29.542  1.00  0.00     0.086 A 
ATOM     29  C   UNL     1     -23.637  19.978 -29.409  1.00  0.00     0.042 A 
ATOM     30  C   UNL     1     -22.932  18.070 -30.722  1.00  0.00     0.069 A 
ATOM     31  C   UNL     1     -24.303  20.497 -30.478  1.00  0.00     0.022 A 
ATOM     32  C   UNL     1     -23.600  18.588 -31.800  1.00  0.00     0.053 A 
ATOM     33  Cl  UNL     1     -22.049  16.572 -30.762  1.00  0.00    -0.082 Cl
ATOM     34  C   UNL     1     -25.049  21.632 -30.678  1.00  0.00     0.117 A 
ATOM     35  C   UNL     1     -24.283  19.790 -31.689  1.00  0.00     0.094 A 
ATOM     36  N   UNL     1     -25.460  21.607 -31.955  1.00  0.00    -0.275 N 
ATOM     37  N   UNL     1     -24.998  20.505 -32.546  1.00  0.00    -0.173 NA
ATOM     38  C   UNL     1     -26.275  22.615 -32.585  1.00  0.00     0.173 C 
ENDBRANCH   6  28
TORSDOF 5
ENDMDL
MODEL 5
REMARK VINA RESULT:    -9.350      2.768      6.876
REMARK INTER + INTRA:         -11.815
REMARK INTER:                 -10.974
REMARK INTRA:                  -0.842
REMARK UNBOUND:                 0.268
REMARK SMILES Cn1cnc(Cn2c(=O)[nH]/c(=N\c3cc4cn(C)nc4cc3Cl)n(Cc3cc(F)c(F)cc3F)c2=O)n1
REMARK SMILES IDX 9 1 8 2 10 3 11 4 24 5 12 6 7 7 35 8 36 9 6 11 5 12 37 13
REMARK SMILES IDX 4 14 2 15 3 16 1 17 25 18 26 19 33 20 27 21 34 22 32 23
REMARK SMILES IDX 28 24 30 25 29 26 31 27 13 28 14 29 22 30 15 31 21 32 23 33
REMARK SMILES IDX 16 34 20 35 17 36 19 37 18 38
REMARK H PARENT 10 10
REMARK Flexibility Score: inf
ROOT
ATOM      1  O   UNL     1     -22.699  21.097 -27.043  1.00  0.00    -0.248 OA
ATOM      2  C   UNL     1     -22.083  20.110 -27.558  1.00  0.00     0.332 A 
ATOM      3  N   UNL     1     -22.218  19.885 -28.859  1.00  0.00    -0.277 N 
ATOM      4  C   UNL     1     -21.558  18.828 -29.409  1.00  0.00     0.216 A 
ATOM      5  N   UNL     1     -20.779  18.012 -28.687  1.00  0.00    -0.259 N 
ATOM      6  N   UNL     1     -21.782  18.681 -30.675  1.00  0.00    -0.213 NA
ATOM      7  N   UNL     1     -21.318  19.317 -26.815  1.00  0.00    -0.237 N 
ATOM      8  C   UNL     1     -20.685  18.296 -27.368  1.00  0.00     0.335 A 
ATOM      9  O   UNL     1     -19.961  17.537 -26.689  1.00  0.00    -0.247 OA
ATOM     10  H   UNL     1     -22.827  20.525 -29.422  1.00  0.00     0.175 HD
ENDROOT
BRANCH   7  11
ATOM     11  C   UNL     1     -21.200  19.604 -25.395  1.00  0.00     0.211 C 
BRANCH  11  12
ATOM     12  C   UNL     1     -20.256  20.734 -25.189  1.00  0.00     0.170 A 
ATOM     13  N   UNL     1     -19.083  20.996 -25.792  1.00  0.00    -0.155 NA
ATOM     14  N   UNL     1     -20.456  21.733 -24.301  1.00  0.00    -0.218 NA
ATOM     15  N   UNL     1     -18.563  22.111 -25.306  1.00  0.00    -0.256 N 
ATOM     16  C   UNL     1     -19.415  22.574 -24.378  1.00  0.00     0.219 A 
ATOM     17  C   UNL     1     -17.308  22.762 -25.670  1.00  0.00     0.175 C 
ENDBRANCH  11  12
ENDBRANCH   7  11
BRANCH   5  18
ATOM     18  C   UNL     1     -20.078  16.937 -29.291  1.00  0.00     0.169 C 
BRANCH  18  19
ATOM     19  C   UNL     1     -20.655  15.614 -29.279  1.00  0.00     0.011 A 
ATOM     20  C   UNL     1     -20.125  14.491 -28.731  1.00  0.00     0.131 A 
ATOM     21  C   UNL     1     -21.912  15.450 -29.889  1.00  0.00     0.051 A 
ATOM     22  F   UNL     1     -18.926  14.493 -28.127  1.00  0.00    -0.207 F 
ATOM     23  C   UNL     1     -20.778  13.250 -28.766  1.00  0.00     0.082 A 
ATOM     24  C   UNL     1     -22.568  14.246 -29.936  1.00  0.00     0.159 A 
ATOM     25  C   UNL     1     -22.002  13.126 -29.368  1.00  0.00     0.161 A 
ATOM     26  F   UNL     1     -23.778  14.083 -30.522  1.00  0.00    -0.204 F 
ATOM     27  F   UNL     1     -22.660  11.918 -29.415  1.00  0.00    -0.204 F 
ENDBRANCH  18  19
ENDBRANCH   5  18
BRANCH   6  28
ATOM     28  C   UNL     1     -22.634  19.539 -31.420  1.00  0.00     0.086 A 
ATOM     29  C   UNL     1     -22.097  20.753 -31.820  1.00  0.00     0.042 A 
ATOM     30  C   UNL     1     -23.925  19.168 -31.717  1.00  0.00     0.069 A 
ATOM     31  C   UNL     1     -22.862  21.624 -32.535  1.00  0.00     0.022 A 
ATOM     32  C   UNL     1     -24.698  20.041 -32.435  1.00  0.00     0.053 A 
ATOM     33  Cl  UNL     1     -24.483  17.618 -31.159  1.00  0.00    -0.082 Cl
ATOM     34  C   UNL     1     -22.644  22.871 -33.067  1.00  0.00     0.117 A 
ATOM     35  C   UNL     1     -24.180  21.261 -32.844  1.00  0.00     0.094 A 
ATOM     36  N   UNL     1     -23.784  23.240 -33.672  1.00  0.00    -0.275 N 
ATOM     37  N   UNL     1     -24.691  22.273 -33.532  1.00  0.00    -0.173 NA
ATOM     38  C   UNL     1     -23.990  24.488 -34.362  1.00  0.00     0.173 C 
ENDBRANCH   6  28
TORSDOF 5
ENDMDL
