MODEL 1
REMARK VINA RESULT:    -8.116      0.000      0.000
REMARK INTER + INTRA:         -12.058
REMARK INTER:                 -11.960
REMARK INTRA:                  -0.098
REMARK UNBOUND:                -0.147
REMARK SMILES CC(C)(C)c1ccc(N(C(=O)c2c[nH]cn2)[C@@H](C(=O)NC2CCCCC2)c2cccnc2)cc1
REMARK SMILES IDX 9 1 10 2 11 3 12 4 16 5 13 6 15 7 14 8 17 9 27 10 32 11
REMARK SMILES IDX 28 12 31 13 29 14 30 15 18 16 19 17 20 18 21 19 26 20 22 21
REMARK SMILES IDX 25 22 23 23 24 24 8 25 33 26 7 27 34 28 6 29 5 30 2 31 4 32
REMARK SMILES IDX 3 33 1 34
REMARK H PARENT
REMARK Flexibility Score: inf
ROOT
ATOM      1  N   UNL     1     -20.383  20.195 -27.943  1.00  0.00    -0.290 N 
ENDROOT
BRANCH   1   2
ATOM      2  C   UNL     1     -20.572  21.215 -28.983  1.00  0.00     0.279 C 
ATOM      3  O   UNL     1     -19.639  21.886 -29.257  1.00  0.00    -0.267 OA
BRANCH   2   4
ATOM      4  C   UNL     1     -21.930  21.415 -29.694  1.00  0.00     0.146 A 
ATOM      5  N   UNL     1     -23.080  21.532 -29.066  1.00  0.00    -0.232 NA
ATOM      6  C   UNL     1     -22.195  21.470 -31.049  1.00  0.00     0.033 A 
ATOM      7  C   UNL     1     -24.050  21.669 -29.992  1.00  0.00     0.093 A 
ATOM      8  N   UNL     1     -23.505  21.626 -31.206  1.00  0.00    -0.350 N 
ENDBRANCH   2   4
ENDBRANCH   1   2
BRANCH   1   9
ATOM      9  C   UNL     1     -20.087  20.601 -26.600  1.00  0.00     0.142 C 
BRANCH   9  10
ATOM     10  C   UNL     1     -18.873  21.449 -26.366  1.00  0.00     0.003 A 
ATOM     11  C   UNL     1     -17.690  21.177 -27.000  1.00  0.00     0.033 A 
ATOM     12  C   UNL     1     -18.969  22.468 -25.486  1.00  0.00    -0.053 A 
ATOM     13  N   UNL     1     -16.588  21.913 -26.733  1.00  0.00    -0.264 NA
ATOM     14  C   UNL     1     -17.856  23.228 -25.228  1.00  0.00    -0.043 A 
ATOM     15  C   UNL     1     -16.665  22.937 -25.867  1.00  0.00     0.027 A 
ENDBRANCH   9  10
BRANCH   9  16
ATOM     16  C   UNL     1     -19.755  19.326 -25.771  1.00  0.00     0.248 C 
ATOM     17  O   UNL     1     -18.631  18.897 -25.701  1.00  0.00    -0.272 OA
ATOM     18  N   UNL     1     -20.867  18.699 -25.036  1.00  0.00    -0.351 N 
BRANCH  18  19
ATOM     19  C   UNL     1     -20.708  17.524 -24.214  1.00  0.00     0.029 C 
ATOM     20  C   UNL     1     -20.081  16.420 -25.083  1.00  0.00    -0.033 C 
ATOM     21  C   UNL     1     -22.109  17.113 -23.767  1.00  0.00    -0.033 C 
ATOM     22  C   UNL     1     -20.181  15.035 -24.425  1.00  0.00    -0.051 C 
ATOM     23  C   UNL     1     -22.095  15.808 -22.975  1.00  0.00    -0.051 C 
ATOM     24  C   UNL     1     -21.533  14.707 -23.827  1.00  0.00    -0.053 C 
ENDBRANCH  18  19
ENDBRANCH   9  16
ENDBRANCH   1   9
BRANCH   1  25
ATOM     25  C   UNL     1     -20.640  18.752 -28.159  1.00  0.00     0.045 A 
ATOM     26  C   UNL     1     -19.646  17.911 -28.621  1.00  0.00    -0.038 A 
ATOM     27  C   UNL     1     -21.927  18.271 -27.904  1.00  0.00    -0.038 A 
ATOM     28  C   UNL     1     -19.925  16.547 -28.818  1.00  0.00    -0.056 A 
ATOM     29  C   UNL     1     -22.205  16.912 -28.100  1.00  0.00    -0.056 A 
ATOM     30  C   UNL     1     -21.203  16.050 -28.562  1.00  0.00    -0.042 A 
BRANCH  30  31
ATOM     31  C   UNL     1     -21.519  14.524 -28.775  1.00  0.00    -0.013 C 
ATOM     32  C   UNL     1     -20.217  13.734 -28.872  1.00  0.00    -0.056 C 
ATOM     33  C   UNL     1     -22.365  13.905 -27.642  1.00  0.00    -0.056 C 
ATOM     34  C   UNL     1     -22.307  14.393 -30.083  1.00  0.00    -0.056 C 
ENDBRANCH  30  31
ENDBRANCH   1  25
TORSDOF 8
ENDMDL
MODEL 2
REMARK VINA RESULT:    -8.074      2.854      7.768
REMARK INTER + INTRA:         -11.996
REMARK INTER:                 -11.226
REMARK INTRA:                  -0.770
REMARK UNBOUND:                -0.147
REMARK SMILES CC(C)(C)c1ccc(N(C(=O)c2c[nH]cn2)[C@@H](C(=O)NC2CCCCC2)c2cccnc2)cc1
REMARK SMILES IDX 9 1 10 2 11 3 12 4 16 5 13 6 15 7 14 8 17 9 27 10 32 11
REMARK SMILES IDX 28 12 31 13 29 14 30 15 18 16 19 17 20 18 21 19 26 20 22 21
REMARK SMILES IDX 25 22 23 23 24 24 8 25 33 26 7 27 34 28 6 29 5 30 2 31 4 32
REMARK SMILES IDX 3 33 1 34
REMARK H PARENT
REMARK Flexibility Score: inf
ROOT
ATOM      1  N   UNL     1     -20.748  15.843 -24.816  1.00  0.00    -0.290 N 
ENDROOT
BRANCH   1   2
ATOM      2  C   UNL     1     -20.265  15.153 -23.613  1.00  0.00     0.279 C 
ATOM      3  O   UNL     1     -19.154  14.750 -23.631  1.00  0.00    -0.267 OA
BRANCH   2   4
ATOM      4  C   UNL     1     -21.162  14.952 -22.370  1.00  0.00     0.146 A 
ATOM      5  N   UNL     1     -21.478  13.776 -21.871  1.00  0.00    -0.232 NA
ATOM      6  C   UNL     1     -21.801  15.908 -21.603  1.00  0.00     0.033 A 
ATOM      7  C   UNL     1     -22.287  13.976 -20.811  1.00  0.00     0.093 A 
ATOM      8  N   UNL     1     -22.486  15.282 -20.652  1.00  0.00    -0.350 N 
ENDBRANCH   2   4
ENDBRANCH   1   2
BRANCH   1   9
ATOM      9  C   UNL     1     -21.890  15.330 -25.514  1.00  0.00     0.142 C 
BRANCH   9  10
ATOM     10  C   UNL     1     -21.658  14.521 -26.755  1.00  0.00     0.003 A 
ATOM     11  C   UNL     1     -20.399  14.122 -27.111  1.00  0.00     0.033 A 
ATOM     12  C   UNL     1     -22.723  14.227 -27.531  1.00  0.00    -0.053 A 
ATOM     13  N   UNL     1     -20.198  13.445 -28.264  1.00  0.00    -0.264 NA
ATOM     14  C   UNL     1     -22.524  13.524 -28.692  1.00  0.00    -0.043 A 
ATOM     15  C   UNL     1     -21.246  13.136 -29.045  1.00  0.00     0.027 A 
ENDBRANCH   9  10
BRANCH   9  16
ATOM     16  C   UNL     1     -22.705  16.538 -26.063  1.00  0.00     0.248 C 
ATOM     17  O   UNL     1     -23.510  17.116 -25.378  1.00  0.00    -0.272 OA
ATOM     18  N   UNL     1     -22.409  16.973 -27.439  1.00  0.00    -0.351 N 
BRANCH  18  19
ATOM     19  C   UNL     1     -23.070  18.085 -28.076  1.00  0.00     0.029 C 
ATOM     20  C   UNL     1     -22.738  18.034 -29.578  1.00  0.00    -0.033 C 
ATOM     21  C   UNL     1     -22.493  19.352 -27.450  1.00  0.00    -0.033 C 
ATOM     22  C   UNL     1     -23.095  19.345 -30.297  1.00  0.00    -0.051 C 
ATOM     23  C   UNL     1     -23.031  20.615 -28.119  1.00  0.00    -0.051 C 
ATOM     24  C   UNL     1     -22.670  20.606 -29.576  1.00  0.00    -0.053 C 
ENDBRANCH  18  19
ENDBRANCH   9  16
ENDBRANCH   1   9
BRANCH   1  25
ATOM     25  C   UNL     1     -20.221  17.150 -25.273  1.00  0.00     0.045 A 
ATOM     26  C   UNL     1     -19.579  17.275 -26.490  1.00  0.00    -0.038 A 
ATOM     27  C   UNL     1     -20.374  18.251 -24.425  1.00  0.00    -0.038 A 
ATOM     28  C   UNL     1     -19.089  18.531 -26.892  1.00  0.00    -0.056 A 
ATOM     29  C   UNL     1     -19.886  19.502 -24.825  1.00  0.00    -0.056 A 
ATOM     30  C   UNL     1     -19.239  19.639 -26.059  1.00  0.00    -0.042 A 
BRANCH  30  31
ATOM     31  C   UNL     1     -18.698  21.047 -26.506  1.00  0.00    -0.013 C 
ATOM     32  C   UNL     1     -19.034  22.091 -25.446  1.00  0.00    -0.056 C 
ATOM     33  C   UNL     1     -17.171  21.078 -26.734  1.00  0.00    -0.056 C 
ATOM     34  C   UNL     1     -19.383  21.409 -27.828  1.00  0.00    -0.056 C 
ENDBRANCH  30  31
ENDBRANCH   1  25
TORSDOF 8
ENDMDL
MODEL 3
REMARK VINA RESULT:    -7.911      2.709      7.815
REMARK INTER + INTRA:         -11.758
REMARK INTER:                 -11.089
REMARK INTRA:                  -0.669
REMARK UNBOUND:                -0.147
REMARK SMILES CC(C)(C)c1ccc(N(C(=O)c2c[nH]cn2)[C@@H](C(=O)NC2CCCCC2)c2cccnc2)cc1
REMARK SMILES IDX 9 1 10 2 11 3 12 4 16 5 13 6 15 7 14 8 17 9 27 10 32 11
REMARK SMILES IDX 28 12 31 13 29 14 30 15 18 16 19 17 20 18 21 19 26 20 22 21
REMARK SMILES IDX 25 22 23 23 24 24 8 25 33 26 7 27 34 28 6 29 5 30 2 31 4 32
REMARK SMILES IDX 3 33 1 34
REMARK H PARENT
REMARK Flexibility Score: inf
ROOT
ATOM      1  N   UNL     1     -21.716  16.682 -25.049  1.00  0.00    -0.290 N 
ENDROOT
BRANCH   1   2
ATOM      2  C   UNL     1     -21.847  16.198 -23.669  1.00  0.00     0.279 C 
ATOM      3  O   UNL     1     -22.758  16.609 -23.037  1.00  0.00    -0.267 OA
BRANCH   2   4
ATOM      4  C   UNL     1     -20.842  15.197 -23.054  1.00  0.00     0.146 A 
ATOM      5  N   UNL     1     -19.669  14.914 -23.579  1.00  0.00    -0.232 NA
ATOM      6  C   UNL     1     -20.981  14.420 -21.920  1.00  0.00     0.033 A 
ATOM      7  C   UNL     1     -19.073  13.992 -22.797  1.00  0.00     0.093 A 
ATOM      8  N   UNL     1     -19.881  13.688 -21.785  1.00  0.00    -0.350 N 
ENDBRANCH   2   4
ENDBRANCH   1   2
BRANCH   1   9
ATOM      9  C   UNL     1     -22.537  16.115 -26.078  1.00  0.00     0.142 C 
BRANCH   9  10
ATOM     10  C   UNL     1     -21.941  15.060 -26.962  1.00  0.00     0.003 A 
ATOM     11  C   UNL     1     -20.602  14.781 -26.921  1.00  0.00     0.033 A 
ATOM     12  C   UNL     1     -22.757  14.418 -27.824  1.00  0.00    -0.053 A 
ATOM     13  N   UNL     1     -20.069  13.871 -27.767  1.00  0.00    -0.264 NA
ATOM     14  C   UNL     1     -22.221  13.480 -28.670  1.00  0.00    -0.043 A 
ATOM     15  C   UNL     1     -20.866  13.215 -28.626  1.00  0.00     0.027 A 
ENDBRANCH   9  10
BRANCH   9  16
ATOM     16  C   UNL     1     -22.877  17.239 -27.100  1.00  0.00     0.248 C 
ATOM     17  O   UNL     1     -23.673  18.106 -26.840  1.00  0.00    -0.272 OA
ATOM     18  N   UNL     1     -22.144  17.224 -28.377  1.00  0.00    -0.351 N 
BRANCH  18  19
ATOM     19  C   UNL     1     -22.339  18.209 -29.413  1.00  0.00     0.029 C 
ATOM     20  C   UNL     1     -22.302  17.482 -30.769  1.00  0.00    -0.033 C 
ATOM     21  C   UNL     1     -21.174  19.189 -29.307  1.00  0.00    -0.033 C 
ATOM     22  C   UNL     1     -22.154  18.457 -31.948  1.00  0.00    -0.051 C 
ATOM     23  C   UNL     1     -21.199  20.228 -30.427  1.00  0.00    -0.051 C 
ATOM     24  C   UNL     1     -21.110  19.537 -31.757  1.00  0.00    -0.053 C 
ENDBRANCH  18  19
ENDBRANCH   9  16
ENDBRANCH   1   9
BRANCH   1  25
ATOM     25  C   UNL     1     -20.887  17.850 -25.428  1.00  0.00     0.045 A 
ATOM     26  C   UNL     1     -19.731  17.696 -26.168  1.00  0.00    -0.038 A 
ATOM     27  C   UNL     1     -21.300  19.114 -24.995  1.00  0.00    -0.038 A 
ATOM     28  C   UNL     1     -18.967  18.827 -26.508  1.00  0.00    -0.056 A 
ATOM     29  C   UNL     1     -20.539  20.240 -25.334  1.00  0.00    -0.056 A 
ATOM     30  C   UNL     1     -19.369  20.095 -26.088  1.00  0.00    -0.042 A 
BRANCH  30  31
ATOM     31  C   UNL     1     -18.521  21.364 -26.471  1.00  0.00    -0.013 C 
ATOM     32  C   UNL     1     -18.720  22.454 -25.421  1.00  0.00    -0.056 C 
ATOM     33  C   UNL     1     -17.007  21.084 -26.582  1.00  0.00    -0.056 C 
ATOM     34  C   UNL     1     -19.015  21.857 -27.834  1.00  0.00    -0.056 C 
ENDBRANCH  30  31
ENDBRANCH   1  25
TORSDOF 8
ENDMDL
MODEL 4
REMARK VINA RESULT:    -7.806      2.345      6.506
REMARK INTER + INTRA:         -11.603
REMARK INTER:                 -10.687
REMARK INTRA:                  -0.916
REMARK UNBOUND:                -0.147
REMARK SMILES CC(C)(C)c1ccc(N(C(=O)c2c[nH]cn2)[C@@H](C(=O)NC2CCCCC2)c2cccnc2)cc1
REMARK SMILES IDX 9 1 10 2 11 3 12 4 16 5 13 6 15 7 14 8 17 9 27 10 32 11
REMARK SMILES IDX 28 12 31 13 29 14 30 15 18 16 19 17 20 18 21 19 26 20 22 21
REMARK SMILES IDX 25 22 23 23 24 24 8 25 33 26 7 27 34 28 6 29 5 30 2 31 4 32
REMARK SMILES IDX 3 33 1 34
REMARK H PARENT
REMARK Flexibility Score: inf
ROOT
ATOM      1  N   UNL     1     -20.942  17.707 -27.559  1.00  0.00    -0.290 N 
ENDROOT
BRANCH   1   2
ATOM      2  C   UNL     1     -20.069  16.894 -28.416  1.00  0.00     0.279 C 
ATOM      3  O   UNL     1     -19.060  17.389 -28.783  1.00  0.00    -0.267 OA
BRANCH   2   4
ATOM      4  C   UNL     1     -20.444  15.453 -28.833  1.00  0.00     0.146 A 
ATOM      5  N   UNL     1     -21.514  15.143 -29.533  1.00  0.00    -0.232 NA
ATOM      6  C   UNL     1     -19.790  14.272 -28.539  1.00  0.00     0.033 A 
ATOM      7  C   UNL     1     -21.536  13.805 -29.691  1.00  0.00     0.093 A 
ATOM      8  N   UNL     1     -20.482  13.274 -29.077  1.00  0.00    -0.350 N 
ENDBRANCH   2   4
ENDBRANCH   1   2
BRANCH   1   9
ATOM      9  C   UNL     1     -21.780  18.707 -28.150  1.00  0.00     0.142 C 
BRANCH   9  10
ATOM     10  C   UNL     1     -22.075  18.610 -29.617  1.00  0.00     0.003 A 
ATOM     11  C   UNL     1     -21.179  19.063 -30.547  1.00  0.00     0.033 A 
ATOM     12  C   UNL     1     -23.265  18.096 -29.994  1.00  0.00    -0.053 A 
ATOM     13  N   UNL     1     -21.484  19.025 -31.864  1.00  0.00    -0.264 NA
ATOM     14  C   UNL     1     -23.569  18.039 -31.331  1.00  0.00    -0.043 A 
ATOM     15  C   UNL     1     -22.659  18.508 -32.259  1.00  0.00     0.027 A 
ENDBRANCH   9  10
BRANCH   9  16
ATOM     16  C   UNL     1     -21.041  20.074 -28.059  1.00  0.00     0.248 C 
ATOM     17  O   UNL     1     -21.530  21.084 -28.498  1.00  0.00    -0.272 OA
ATOM     18  N   UNL     1     -19.740  20.086 -27.367  1.00  0.00    -0.351 N 
BRANCH  18  19
ATOM     19  C   UNL     1     -18.949  21.278 -27.191  1.00  0.00     0.029 C 
ATOM     20  C   UNL     1     -17.465  20.868 -27.217  1.00  0.00    -0.033 C 
ATOM     21  C   UNL     1     -19.315  21.846 -25.822  1.00  0.00    -0.033 C 
ATOM     22  C   UNL     1     -16.544  21.985 -26.701  1.00  0.00    -0.051 C 
ATOM     23  C   UNL     1     -18.460  23.058 -25.460  1.00  0.00    -0.051 C 
ATOM     24  C   UNL     1     -17.012  22.663 -25.430  1.00  0.00    -0.053 C 
ENDBRANCH  18  19
ENDBRANCH   9  16
ENDBRANCH   1   9
BRANCH   1  25
ATOM     25  C   UNL     1     -21.135  17.447 -26.113  1.00  0.00     0.045 A 
ATOM     26  C   UNL     1     -22.290  17.839 -25.465  1.00  0.00    -0.038 A 
ATOM     27  C   UNL     1     -20.101  16.811 -25.418  1.00  0.00    -0.038 A 
ATOM     28  C   UNL     1     -22.439  17.579 -24.091  1.00  0.00    -0.056 A 
ATOM     29  C   UNL     1     -20.250  16.552 -24.049  1.00  0.00    -0.056 A 
ATOM     30  C   UNL     1     -21.420  16.941 -23.385  1.00  0.00    -0.042 A 
BRANCH  30  31
ATOM     31  C   UNL     1     -21.583  16.642 -21.849  1.00  0.00    -0.013 C 
ATOM     32  C   UNL     1     -20.847  17.702 -21.035  1.00  0.00    -0.056 C 
ATOM     33  C   UNL     1     -23.053  16.620 -21.378  1.00  0.00    -0.056 C 
ATOM     34  C   UNL     1     -20.976  15.262 -21.578  1.00  0.00    -0.056 C 
ENDBRANCH  30  31
ENDBRANCH   1  25
TORSDOF 8
ENDMDL
MODEL 5
REMARK VINA RESULT:    -7.719      2.369      5.506
REMARK INTER + INTRA:         -11.476
REMARK INTER:                 -11.448
REMARK INTRA:                  -0.028
REMARK UNBOUND:                -0.147
REMARK SMILES CC(C)(C)c1ccc(N(C(=O)c2c[nH]cn2)[C@@H](C(=O)NC2CCCCC2)c2cccnc2)cc1
REMARK SMILES IDX 9 1 10 2 11 3 12 4 16 5 13 6 15 7 14 8 17 9 27 10 32 11
REMARK SMILES IDX 28 12 31 13 29 14 30 15 18 16 19 17 20 18 21 19 26 20 22 21
REMARK SMILES IDX 25 22 23 23 24 24 8 25 33 26 7 27 34 28 6 29 5 30 2 31 4 32
REMARK SMILES IDX 3 33 1 34
REMARK H PARENT
REMARK Flexibility Score: inf
ROOT
ATOM      1  N   UNL     1     -20.215  17.563 -26.786  1.00  0.00    -0.290 N 
ENDROOT
BRANCH   1   2
ATOM      2  C   UNL     1     -19.483  18.594 -26.039  1.00  0.00     0.279 C 
ATOM      3  O   UNL     1     -19.337  18.419 -24.880  1.00  0.00    -0.267 OA
BRANCH   2   4
ATOM      4  C   UNL     1     -18.927  19.862 -26.727  1.00  0.00     0.146 A 
ATOM      5  N   UNL     1     -17.665  20.230 -26.683  1.00  0.00    -0.232 NA
ATOM      6  C   UNL     1     -19.609  20.822 -27.450  1.00  0.00     0.033 A 
ATOM      7  C   UNL     1     -17.543  21.385 -27.367  1.00  0.00     0.093 A 
ATOM      8  N   UNL     1     -18.736  21.747 -27.831  1.00  0.00    -0.350 N 
ENDBRANCH   2   4
ENDBRANCH   1   2
BRANCH   1   9
ATOM      9  C   UNL     1     -20.248  16.219 -26.290  1.00  0.00     0.142 C 
BRANCH   9  10
ATOM     10  C   UNL     1     -20.622  15.120 -27.239  1.00  0.00     0.003 A 
ATOM     11  C   UNL     1     -19.685  14.541 -28.051  1.00  0.00     0.033 A 
ATOM     12  C   UNL     1     -21.917  14.742 -27.295  1.00  0.00    -0.053 A 
ATOM     13  N   UNL     1     -20.049  13.594 -28.944  1.00  0.00    -0.264 NA
ATOM     14  C   UNL     1     -22.285  13.767 -28.189  1.00  0.00    -0.043 A 
ATOM     15  C   UNL     1     -21.330  13.198 -29.010  1.00  0.00     0.027 A 
ENDBRANCH   9  10
BRANCH   9  16
ATOM     16  C   UNL     1     -21.379  16.124 -25.224  1.00  0.00     0.248 C 
ATOM     17  O   UNL     1     -22.482  16.559 -25.437  1.00  0.00    -0.272 OA
ATOM     18  N   UNL     1     -21.054  15.434 -23.964  1.00  0.00    -0.351 N 
BRANCH  18  19
ATOM     19  C   UNL     1     -22.002  15.254 -22.893  1.00  0.00     0.029 C 
ATOM     20  C   UNL     1     -22.053  16.562 -22.083  1.00  0.00    -0.033 C 
ATOM     21  C   UNL     1     -21.470  14.116 -22.026  1.00  0.00    -0.033 C 
ATOM     22  C   UNL     1     -22.759  16.380 -20.730  1.00  0.00    -0.051 C 
ATOM     23  C   UNL     1     -22.330  13.895 -20.783  1.00  0.00    -0.051 C 
ATOM     24  C   UNL     1     -22.348  15.147 -19.954  1.00  0.00    -0.053 C 
ENDBRANCH  18  19
ENDBRANCH   9  16
ENDBRANCH   1   9
BRANCH   1  25
ATOM     25  C   UNL     1     -21.071  17.859 -27.959  1.00  0.00     0.045 A 
ATOM     26  C   UNL     1     -20.614  17.655 -29.247  1.00  0.00    -0.038 A 
ATOM     27  C   UNL     1     -22.350  18.373 -27.723  1.00  0.00    -0.038 A 
ATOM     28  C   UNL     1     -21.453  17.950 -30.337  1.00  0.00    -0.056 A 
ATOM     29  C   UNL     1     -23.185  18.666 -28.809  1.00  0.00    -0.056 A 
ATOM     30  C   UNL     1     -22.733  18.457 -30.117  1.00  0.00    -0.042 A 
BRANCH  30  31
ATOM     31  C   UNL     1     -23.678  18.783 -31.333  1.00  0.00    -0.013 C 
ATOM     32  C   UNL     1     -23.545  17.697 -32.396  1.00  0.00    -0.056 C 
ATOM     33  C   UNL     1     -25.168  18.888 -30.946  1.00  0.00    -0.056 C 
ATOM     34  C   UNL     1     -23.240  20.133 -31.910  1.00  0.00    -0.056 C 
ENDBRANCH  30  31
ENDBRANCH   1  25
TORSDOF 8
ENDMDL
