REMARK SMILES CC(C)(C)c1ccc(N(C(=O)c2c[nH]cn2)[C@@H](C(=O)NC2CCCCC2)c2cccnc2)cc1
REMARK SMILES IDX 9 1 10 2 11 3 12 4 16 5 13 6 15 7 14 8 17 9 27 10 32 11
REMARK SMILES IDX 28 12 31 13 29 14 30 15 18 16 19 17 20 18 21 19 26 20 22 21
REMARK SMILES IDX 25 22 23 23 24 24 8 25 33 26 7 27 34 28 6 29 5 30 2 31 4 32
REMARK SMILES IDX 3 33 1 34
REMARK H PARENT
REMARK Flexibility Score: inf
ROOT
ATOM      1  N   UNL     1     -20.376  20.166 -27.938  1.00  0.00    -0.290 N 
ENDROOT
BRANCH   1   2
ATOM      2  C   UNL     1     -20.571  21.183 -28.980  1.00  0.00     0.279 C 
ATOM      3  O   UNL     1     -19.635  21.843 -29.271  1.00  0.00    -0.267 OA
BRANCH   2   4
ATOM      4  C   UNL     1     -21.937  21.394 -29.671  1.00  0.00     0.146 A 
ATOM      5  N   UNL     1     -23.078  21.516 -29.026  1.00  0.00    -0.232 NA
ATOM      6  C   UNL     1     -22.222  21.456 -31.022  1.00  0.00     0.033 A 
ATOM      7  C   UNL     1     -24.060  21.663 -29.939  1.00  0.00     0.093 A 
ATOM      8  N   UNL     1     -23.532  21.621 -31.159  1.00  0.00    -0.350 N 
ENDBRANCH   2   4
ENDBRANCH   1   2
BRANCH   1   9
ATOM      9  C   UNL     1     -20.078  20.575 -26.598  1.00  0.00     0.142 C 
BRANCH   9  10
ATOM     10  C   UNL     1     -18.875  21.441 -26.371  1.00  0.00     0.003 A 
ATOM     11  C   UNL     1     -17.699  21.199 -27.027  1.00  0.00     0.033 A 
ATOM     12  C   UNL     1     -18.975  22.446 -25.475  1.00  0.00    -0.053 A 
ATOM     13  N   UNL     1     -16.606  21.951 -26.767  1.00  0.00    -0.264 NA
ATOM     14  C   UNL     1     -17.872  23.222 -25.224  1.00  0.00    -0.043 A 
ATOM     15  C   UNL     1     -16.687  22.961 -25.886  1.00  0.00     0.027 A 
ENDBRANCH   9  10
BRANCH   9  16
ATOM     16  C   UNL     1     -19.721  19.304 -25.772  1.00  0.00     0.248 C 
ATOM     17  O   UNL     1     -18.596  18.876 -25.733  1.00  0.00    -0.272 OA
ATOM     18  N   UNL     1     -20.810  18.681 -25.000  1.00  0.00    -0.351 N 
BRANCH  18  19
ATOM     19  C   UNL     1     -20.628  17.511 -24.177  1.00  0.00     0.029 C 
ATOM     20  C   UNL     1     -20.084  16.384 -25.072  1.00  0.00    -0.033 C 
ATOM     21  C   UNL     1     -22.006  17.139 -23.636  1.00  0.00    -0.033 C 
ATOM     22  C   UNL     1     -20.175  15.008 -24.393  1.00  0.00    -0.051 C 
ATOM     23  C   UNL     1     -21.972  15.842 -22.832  1.00  0.00    -0.051 C 
ATOM     24  C   UNL     1     -21.493  14.719 -23.706  1.00  0.00    -0.053 C 
ENDBRANCH  18  19
ENDBRANCH   9  16
ENDBRANCH   1   9
BRANCH   1  25
ATOM     25  C   UNL     1     -20.631  18.721 -28.151  1.00  0.00     0.045 A 
ATOM     26  C   UNL     1     -19.642  17.886 -28.634  1.00  0.00    -0.038 A 
ATOM     27  C   UNL     1     -21.910  18.233 -27.870  1.00  0.00    -0.038 A 
ATOM     28  C   UNL     1     -19.919  16.520 -28.827  1.00  0.00    -0.056 A 
ATOM     29  C   UNL     1     -22.186  16.873 -28.062  1.00  0.00    -0.056 A 
ATOM     30  C   UNL     1     -21.189  16.017 -28.545  1.00  0.00    -0.042 A 
BRANCH  30  31
ATOM     31  C   UNL     1     -21.502  14.490 -28.754  1.00  0.00    -0.013 C 
ATOM     32  C   UNL     1     -20.199  13.708 -28.892  1.00  0.00    -0.056 C 
ATOM     33  C   UNL     1     -22.310  13.862 -27.598  1.00  0.00    -0.056 C 
ATOM     34  C   UNL     1     -22.327  14.357 -30.038  1.00  0.00    -0.056 C 
ENDBRANCH  30  31
ENDBRANCH   1  25
TORSDOF 8
