REMARK SMILES CC(C)(C)c1ccc(N(C(=O)c2c[nH]cn2)[C@@H](C(=O)NC2CCCCC2)c2cccnc2)cc1
REMARK SMILES IDX 9 1 10 2 11 3 12 4 16 5 13 6 15 7 14 8 17 9 27 10 32 11
REMARK SMILES IDX 28 12 31 13 29 14 30 15 18 16 19 17 20 18 21 19 26 20 22 21
REMARK SMILES IDX 25 22 23 23 24 24 8 25 33 26 7 27 34 28 6 29 5 30 2 31 4 32
REMARK SMILES IDX 3 33 1 34
REMARK H PARENT
REMARK Flexibility Score: inf
ROOT
ATOM      1  N   UNL     1     -19.915  20.161 -28.186  1.00  0.00    -0.290 N 
ENDROOT
BRANCH   1   2
ATOM      2  C   UNL     1     -19.908  21.124 -29.295  1.00  0.00     0.279 C 
ATOM      3  O   UNL     1     -19.635  22.244 -29.036  1.00  0.00    -0.267 OA
BRANCH   2   4
ATOM      4  C   UNL     1     -20.246  20.704 -30.744  1.00  0.00     0.146 A 
ATOM      5  N   UNL     1     -20.218  21.522 -31.774  1.00  0.00    -0.232 NA
ATOM      6  C   UNL     1     -20.656  19.470 -31.212  1.00  0.00     0.033 A 
ATOM      7  C   UNL     1     -20.588  20.828 -32.869  1.00  0.00     0.093 A 
ATOM      8  N   UNL     1     -20.860  19.573 -32.520  1.00  0.00    -0.350 N 
ENDBRANCH   2   4
ENDBRANCH   1   2
BRANCH   1   9
ATOM      9  C   UNL     1     -19.682  20.621 -26.849  1.00  0.00     0.142 C 
BRANCH   9  10
ATOM     10  C   UNL     1     -18.425  21.391 -26.572  1.00  0.00     0.003 A 
ATOM     11  C   UNL     1     -17.231  21.012 -27.123  1.00  0.00     0.033 A 
ATOM     12  C   UNL     1     -18.498  22.448 -25.736  1.00  0.00    -0.053 A 
ATOM     13  N   UNL     1     -16.096  21.679 -26.816  1.00  0.00    -0.264 NA
ATOM     14  C   UNL     1     -17.350  23.138 -25.438  1.00  0.00    -0.043 A 
ATOM     15  C   UNL     1     -16.149  22.739 -25.993  1.00  0.00     0.027 A 
ENDBRANCH   9  10
BRANCH   9  16
ATOM     16  C   UNL     1     -19.506  19.375 -25.932  1.00  0.00     0.248 C 
ATOM     17  O   UNL     1     -18.546  18.654 -26.029  1.00  0.00    -0.272 OA
ATOM     18  N   UNL     1     -20.540  19.148 -24.908  1.00  0.00    -0.351 N 
BRANCH  18  19
ATOM     19  C   UNL     1     -20.503  18.047 -23.977  1.00  0.00     0.029 C 
ATOM     20  C   UNL     1     -21.457  16.957 -24.497  1.00  0.00    -0.033 C 
ATOM     21  C   UNL     1     -21.000  18.590 -22.640  1.00  0.00    -0.033 C 
ATOM     22  C   UNL     1     -21.763  15.895 -23.429  1.00  0.00    -0.051 C 
ATOM     23  C   UNL     1     -21.117  17.491 -21.586  1.00  0.00    -0.051 C 
ATOM     24  C   UNL     1     -22.085  16.444 -22.055  1.00  0.00    -0.053 C 
ENDBRANCH  18  19
ENDBRANCH   9  16
ENDBRANCH   1   9
BRANCH   1  25
ATOM     25  C   UNL     1     -20.313  18.742 -28.341  1.00  0.00     0.045 A 
ATOM     26  C   UNL     1     -19.389  17.775 -28.688  1.00  0.00    -0.038 A 
ATOM     27  C   UNL     1     -21.658  18.414 -28.147  1.00  0.00    -0.038 A 
ATOM     28  C   UNL     1     -19.802  16.438 -28.829  1.00  0.00    -0.056 A 
ATOM     29  C   UNL     1     -22.069  17.082 -28.287  1.00  0.00    -0.056 A 
ATOM     30  C   UNL     1     -21.139  16.094 -28.633  1.00  0.00    -0.042 A 
BRANCH  30  31
ATOM     31  C   UNL     1     -21.605  14.599 -28.784  1.00  0.00    -0.013 C 
ATOM     32  C   UNL     1     -22.582  14.477 -29.950  1.00  0.00    -0.056 C 
ATOM     33  C   UNL     1     -20.444  13.613 -29.034  1.00  0.00    -0.056 C 
ATOM     34  C   UNL     1     -22.299  14.196 -27.479  1.00  0.00    -0.056 C 
ENDBRANCH  30  31
ENDBRANCH   1  25
TORSDOF 8
