REMARK SMILES CC(C)(C)c1ccc(N(C(=O)c2c[nH]cn2)[C@@H](C(=O)NC2CCCCC2)c2cccnc2)cc1
REMARK SMILES IDX 9 1 10 2 11 3 12 4 16 5 13 6 15 7 14 8 17 9 27 10 32 11
REMARK SMILES IDX 28 12 31 13 29 14 30 15 18 16 19 17 20 18 21 19 26 20 22 21
REMARK SMILES IDX 25 22 23 23 24 24 8 25 33 26 7 27 34 28 6 29 5 30 2 31 4 32
REMARK SMILES IDX 3 33 1 34
REMARK H PARENT
REMARK Flexibility Score: inf
ROOT
ATOM      1  N   UNL     1     -20.135  20.134 -27.990  1.00  0.00    -0.290 N 
ENDROOT
BRANCH   1   2
ATOM      2  C   UNL     1     -20.150  21.108 -29.090  1.00  0.00     0.279 C 
ATOM      3  O   UNL     1     -19.832  22.217 -28.834  1.00  0.00    -0.267 OA
BRANCH   2   4
ATOM      4  C   UNL     1     -20.566  20.712 -30.525  1.00  0.00     0.146 A 
ATOM      5  N   UNL     1     -20.445  21.501 -31.572  1.00  0.00    -0.232 NA
ATOM      6  C   UNL     1     -21.148  19.538 -30.963  1.00  0.00     0.033 A 
ATOM      7  C   UNL     1     -20.925  20.845 -32.647  1.00  0.00     0.093 A 
ATOM      8  N   UNL     1     -21.359  19.645 -32.270  1.00  0.00    -0.350 N 
ENDBRANCH   2   4
ENDBRANCH   1   2
BRANCH   1   9
ATOM      9  C   UNL     1     -19.953  20.591 -26.644  1.00  0.00     0.142 C 
BRANCH   9  10
ATOM     10  C   UNL     1     -18.765  21.455 -26.342  1.00  0.00     0.003 A 
ATOM     11  C   UNL     1     -17.548  21.205 -26.916  1.00  0.00     0.033 A 
ATOM     12  C   UNL     1     -18.921  22.465 -25.460  1.00  0.00    -0.053 A 
ATOM     13  N   UNL     1     -16.472  21.955 -26.588  1.00  0.00    -0.264 NA
ATOM     14  C   UNL     1     -17.834  23.239 -25.140  1.00  0.00    -0.043 A 
ATOM     15  C   UNL     1     -16.608  22.970 -25.719  1.00  0.00     0.027 A 
ENDBRANCH   9  10
BRANCH   9  16
ATOM     16  C   UNL     1     -19.688  19.350 -25.743  1.00  0.00     0.248 C 
ATOM     17  O   UNL     1     -18.613  18.806 -25.723  1.00  0.00    -0.272 OA
ATOM     18  N   UNL     1     -20.793  18.903 -24.879  1.00  0.00    -0.351 N 
BRANCH  18  19
ATOM     19  C   UNL     1     -20.690  17.780 -23.980  1.00  0.00     0.029 C 
ATOM     20  C   UNL     1     -21.317  16.559 -24.676  1.00  0.00    -0.033 C 
ATOM     21  C   UNL     1     -21.491  18.145 -22.733  1.00  0.00    -0.033 C 
ATOM     22  C   UNL     1     -21.575  15.402 -23.698  1.00  0.00    -0.051 C 
ATOM     23  C   UNL     1     -21.557  16.989 -21.738  1.00  0.00    -0.051 C 
ATOM     24  C   UNL     1     -22.214  15.804 -22.385  1.00  0.00    -0.053 C 
ENDBRANCH  18  19
ENDBRANCH   9  16
ENDBRANCH   1   9
BRANCH   1  25
ATOM     25  C   UNL     1     -20.461  18.700 -28.167  1.00  0.00     0.045 A 
ATOM     26  C   UNL     1     -19.484  17.781 -28.501  1.00  0.00    -0.038 A 
ATOM     27  C   UNL     1     -21.792  18.306 -28.007  1.00  0.00    -0.038 A 
ATOM     28  C   UNL     1     -19.829  16.428 -28.663  1.00  0.00    -0.056 A 
ATOM     29  C   UNL     1     -22.136  16.957 -28.168  1.00  0.00    -0.056 A 
ATOM     30  C   UNL     1     -21.152  16.018 -28.501  1.00  0.00    -0.042 A 
BRANCH  30  31
ATOM     31  C   UNL     1     -21.542  14.504 -28.676  1.00  0.00    -0.013 C 
ATOM     32  C   UNL     1     -22.438  14.339 -29.900  1.00  0.00    -0.056 C 
ATOM     33  C   UNL     1     -20.326  13.570 -28.850  1.00  0.00    -0.056 C 
ATOM     34  C   UNL     1     -22.298  14.072 -27.416  1.00  0.00    -0.056 C 
ENDBRANCH  30  31
ENDBRANCH   1  25
TORSDOF 8
